14
generated via python
Cl 	 -0.16080 	 -1.77720 	 -0.33160
Cl 	  2.20420 	  0.57820 	 -0.75720
C  	 -0.07800 	 -0.24460 	  0.59530
C  	 -0.94710 	  0.84280 	 -0.05340
C  	  1.38470 	  0.17500 	  0.77250
C  	 -2.40300 	  0.42590 	 -0.22550
H  	 -0.48740 	 -0.47740 	  1.58490
H  	 -0.91130 	  1.74420 	  0.57040
H  	 -0.55730 	  1.12460 	 -1.03800
H  	  1.96350 	 -0.62000 	  1.25430
H  	  1.44650 	  1.06230 	  1.41080
H  	 -2.82780 	  0.07930 	  0.72200
H  	 -2.99600 	  1.28120 	 -0.56640
H  	 -2.51810 	 -0.36630 	 -0.97080
