8
generated via python
Cl 	  1.64640 	 -0.71100 	  0.13750
Cl 	 -1.64630 	 -0.71110 	 -0.13750
C  	  0.68360 	  0.71110 	 -0.33100
C  	 -0.68370 	  0.71110 	  0.33100
H  	  0.59570 	  0.70930 	 -1.42200
H  	  1.24730 	  1.60070 	 -0.03540
H  	 -1.24750 	  1.60070 	  0.03540
H  	 -0.59580 	  0.70940 	  1.42190
