13
generated via python
N 1.22230 0.99520 0.17390
N -1.22280 0.99460 0.17390
C -0.00030 1.37070 -0.53510
C 0.66830 -1.41750 -0.18900
C -0.66760 -1.41770 -0.18900
C 1.46610 -0.26220 0.28270
C -1.46600 -0.26300 0.28270
H -0.00060 2.46260 -0.62840
H -0.00020 0.99610 -1.56780
H 1.22200 -2.29870 -0.49330
H -1.22080 -2.29930 -0.49320
H 2.40630 -0.55170 0.78180
H -2.40600 -0.55300 0.78180
