20
generated via python
O 3.85090 0.45160 0.00120
O -2.59990 1.40410 -0.00180
N -1.57050 -0.71710 0.00010
C -0.20660 -0.42310 -0.00020
C 0.22050 0.90470 0.00040
C 0.72980 -1.45700 -0.00070
C 1.58410 1.19860 0.00020
C 2.09330 -1.16290 -0.00070
C 2.52040 0.16480 -0.00030
C -2.64850 0.17820 0.00090
C -3.97350 -0.54200 0.00100
H -0.44360 1.75770 0.00120
H 0.41130 -2.49630 -0.00100
H -1.80100 -1.70860 0.00010
H 1.90530 2.23700 0.00090
H 2.81800 -1.97260 -0.00080
H -4.06550 -1.14630 -0.90580
H -4.79040 0.18440 0.02880
H -4.04450 -1.18860 0.88020
H 3.96500 1.41760 0.00170
