21

C       0.00674698      -0.72839726      -2.47132432
C       0.01146104      -1.43083608      -1.26309649
C      -0.00120553      -0.72098094      -0.05881041
C      -0.02755912       0.67869149      -0.06324738
C      -0.03145619       1.38062168      -1.27225470
C      -0.01308241       0.67237292      -2.47678712
C      -0.06572025       1.25003024       1.34862636
C       0.00863454      -0.01188454       2.26418187
C       0.01631576      -1.26878630       1.35011941
H       0.02099036      -1.27339843      -3.41618495
H       0.03018643      -2.52255842      -1.26488457
H      -0.04628639       2.47302064      -1.28345109
H      -0.01076703       1.21035901      -3.42571359
N      -1.24517306       2.07482453       1.68841602
H       0.80873694       1.89797000       1.51547391
H       0.90575044       0.02302110       2.89420727
H      -0.85120627      -0.00645001       2.94592220
H       0.90747453      -1.89100465       1.52073753
H      -0.85223569      -1.92016358       1.53295794
H      -2.09772161       1.57169357       1.42301411
H      -1.24310124       2.93379235       1.13198445