44

S  	  0.71809 	 -0.49102 	  0.99327
O  	  2.44659 	  1.97788 	 -2.19143
O  	  5.02179 	 -1.76642 	 -0.12043
O  	  4.28069 	 -0.44062 	  1.57937
O  	 -1.27441 	  2.48348 	  1.54837
O  	 -4.25401 	 -3.44962 	  0.02967
N  	  2.69169 	  0.78928 	 -0.16843
N  	 -0.24421 	  2.00838 	 -0.47383
N  	 -3.66711 	  2.86658 	  0.22177
C  	  1.71169 	  1.04538 	  0.88797
C  	  1.73469 	 -1.40252 	 -0.27163
C  	  3.02639 	 -0.58092 	 -0.48213
C  	  1.14029 	  2.15828 	 -0.00583
C  	  2.20079 	  1.72088 	 -1.03493
C  	  1.98289 	 -2.83222 	  0.22047
C  	  0.90989 	 -1.45882 	 -1.56853
C  	  4.15319 	 -0.89842 	  0.45347
C  	 -1.35281 	  2.18678 	  0.35727
C  	 -2.67841 	  1.95388 	 -0.35933
C  	 -3.10101 	  0.50308 	 -0.25493
C  	 -3.28201 	 -0.23132 	 -1.41293
C  	 -3.29681 	 -0.05312 	  0.99647
C  	 -3.67211 	 -1.56712 	 -1.31633
C  	 -3.68671 	 -1.38902 	  1.09297
C  	 -3.87441 	 -2.14592 	 -0.06343
H  	  2.16149 	  1.37988 	  1.82697
H  	  3.38199 	 -0.62552 	 -1.51833
H  	  1.32649 	  3.17158 	  0.36987
H  	  1.04439 	 -3.39072 	  0.32007
H  	  2.61229 	 -3.38172 	 -0.48893
H  	  2.48119 	 -2.85682 	  1.19587
H  	  1.46569 	 -1.98682 	 -2.35243
H  	 -0.03461 	 -1.99702 	 -1.42393
H  	  0.66889 	 -0.46532 	 -1.95953
H  	 -0.41691 	  1.75538 	 -1.44403
H  	 -2.55791 	  2.23548 	 -1.41303
H  	  5.76749 	 -1.98742 	  0.47747
H  	 -4.54871 	  2.77688 	 -0.28263
H  	 -3.36351 	  3.83018 	  0.08317
H  	 -3.12611 	  0.20788 	 -2.39373
H  	 -3.16041 	  0.52118 	  1.90777
H  	 -3.81571 	 -2.15202 	 -2.22073
H  	 -3.84161 	 -1.82802 	  2.07487
H  	 -4.34721 	 -3.68412 	  0.96897
