81
generated via python
O 3.53640 1.22350 0.45290
O 0.39620 -2.01470 1.08050
O 2.86630 1.70220 -2.26930
O 5.10930 2.46940 1.66930
O -3.15830 0.74470 0.35000
O -4.46090 2.48170 -0.38580
N -1.64370 -1.61370 -0.82080
N -7.40850 -0.55600 -0.41260
C 3.24540 0.11320 -0.43800
C 4.61150 -0.43580 -1.03020
C 5.39060 -1.00900 0.19390
C 1.01830 -0.74340 0.76710
C 0.13580 0.11320 -0.22750
C 2.51590 -0.93310 0.43550
C 2.27160 0.64250 -1.52350
C 4.93140 1.42190 0.72270
C 5.50070 0.70610 -1.59370
C 0.98680 1.20450 -0.91530
C 5.56050 0.12020 1.23970
C 5.60010 1.84500 -0.58450
C 4.66520 -2.21300 0.79910
C 4.42450 -1.49350 -2.13270
C 3.19890 -1.96990 0.97050
C 0.92800 0.03570 2.11150
C -0.80870 0.82760 0.74240
C -0.64790 -0.66540 -1.33490
C -0.36510 0.76790 2.00350
C -2.01330 1.59150 0.30690
C 0.30710 -2.94520 0.01000
C -1.09890 -2.94920 -0.56420
C -2.79970 -1.71880 -1.71360
C -2.27990 2.78880 1.20670
C -4.34830 1.31420 -0.02640
C -5.48160 0.38780 0.04170
C -6.57010 0.46680 -0.77160
C -5.63560 -0.69160 0.91810
C -6.84930 -1.26860 0.61590
C -6.92980 1.39510 -1.86170
C -4.70090 -1.14270 1.96850
H 6.39010 -1.34380 -0.11520
H 2.03200 -0.15340 -2.23590
H 5.13810 1.08030 -2.55630
H 6.50890 0.32290 -1.80260
H 1.24190 2.01650 -0.21940
H 0.40310 1.70730 -1.69930
H 5.10610 -0.15190 2.20070
H 6.62590 0.27550 1.45280
H 6.64720 2.12760 -0.42200
H 5.10420 2.73810 -0.98520
H 5.10740 -2.46320 1.77100
H 4.79980 -3.09630 0.16380
H 5.37990 -1.97010 -2.37990
H 3.72440 -2.28340 -1.84550
H 4.04170 -1.04190 -3.05430
H 2.69330 -2.68930 1.60890
H 1.73390 0.76290 2.25480
H 0.90730 -0.63920 2.97480
H -1.16310 0.08390 -1.95230
H 0.03630 -1.16390 -2.03290
H -0.83740 1.22720 2.86010
H 2.25350 1.94100 -2.98560
H -1.86180 1.95240 -0.71750
H 5.01780 2.09070 2.55960
H 0.51990 -3.93750 0.42300
H 1.05540 -2.76300 -0.76910
H -1.08770 -3.56320 -1.47410
H -1.76730 -3.44400 0.15140
H -3.26690 -0.74340 -1.87960
H -3.56780 -2.36480 -1.27370
H -2.52330 -2.12670 -2.69290
H -2.85580 3.57310 0.70750
H -1.34850 3.28940 1.49950
H -2.82710 2.51340 2.11600
H -8.30300 -0.75770 -0.83820
H -7.36610 -2.11960 1.03780
H -6.10230 1.49820 -2.57130
H -7.80330 1.04580 -2.42230
H -7.16370 2.38580 -1.45900
H -3.82610 -1.62970 1.52620
H -4.36120 -0.30170 2.58180
H -5.17790 -1.86470 2.64000
