12

C 	 -1.213100	 -0.688400	  0.000000
C 	 -1.202800	  0.706400	  0.000100
C 	 -0.010300	 -1.394800	  0.000000
C 	  0.010400	  1.394800	 -0.000100
C 	  1.202800	 -0.706300	  0.000000
C 	  1.213100	  0.688400	  0.000000
H 	 -2.157700	 -1.224400	  0.000000
H 	 -2.139300	  1.256400	  0.000100
H 	 -0.018400	 -2.480900	 -0.000100
H 	  0.018400	  2.480800	  0.000000
H 	  2.139400	 -1.256300	  0.000100
H 	  2.157700	  1.224500	  0.000000
