12
generated via python
C -1.22976 -0.71000 0.00000
C -1.04056 0.81923 0.00000
C 0.34928 1.62166 0.00000
C 0.48474 -1.14014 0.00000
C 1.82911 -0.36396 0.00000
C 1.92610 1.11203 0.00000
H -1.40398 -0.81059 0.00000
H -1.39819 1.71275 0.00000
H 0.78990 2.97605 0.00000
H 0.79554 -2.06069 0.00000
H 2.98349 -0.79748 0.00000
H 2.98899 1.72569 0.00000
