41
generated via python
S -0.80190 1.23080 0.51700
O -2.28420 -2.54510 -1.20260
O -5.35170 1.07600 -0.81700
O -5.11570 -0.69700 0.59610
O 2.15980 -2.04050 1.21670
N -2.47810 -0.73690 0.30180
N 0.56770 -1.38070 -0.33750
C -1.31000 -0.41770 1.12790
C -2.56700 1.66790 0.11340
C -3.16710 0.33600 -0.38620
C -0.61420 -1.63250 0.49900
C -1.91810 -1.82610 -0.30070
C -3.21930 2.22240 1.38710
C -2.57710 2.73130 -0.98630
C -4.62960 0.15760 -0.12970
C 1.87300 -1.61070 0.10240
C 2.90200 -1.26550 -0.95630
C 3.86790 -0.19490 -0.52250
C 3.56700 1.13730 -0.76870
C 5.04570 -0.55560 0.11710
C 4.46190 2.12900 -0.36700
C 5.94050 0.43620 0.51900
C 5.64860 1.77860 0.27690
H -1.51670 -0.48520 2.19990
H -2.99610 0.19260 -1.46160
H -0.45090 -2.45850 1.20250
H -3.26550 1.47610 2.18820
H -2.67240 3.09210 1.77090
H -4.24460 2.55720 1.19440
H -2.06660 3.64670 -0.66440
H -2.08420 2.37790 -1.89950
H -3.60080 3.01190 -1.25610
H 0.43590 -1.01130 -1.27620
H -6.31500 0.97620 -0.66110
H 3.44530 -2.18910 -1.19500
H 2.42290 -0.96460 -1.89600
H 2.64430 1.42060 -1.26750
H 5.28180 -1.59790 0.31200
H 4.23430 3.17430 -0.55480
H 6.86420 0.16340 1.02090
H 6.34510 2.55080 0.59010
