12
generated via python
C -1.21310 -0.68840 0.00000
C -1.20280 0.70640 0.00010
C -0.01030 -1.39480 0.00000
C 0.01040 1.39480 -0.00010
C 1.20280 -0.70630 0.00000
C 1.21310 0.68840 0.00000
H -2.15770 -1.22440 0.00000
H -2.13930 1.25640 0.00010
H -0.01840 -2.48090 -0.00010
H 0.01840 2.48080 0.00000
H 2.13940 -1.25630 0.00010
H 2.15770 1.22450 0.00000
