96
generated via python
C -12.89010 -0.81450 -0.50760
C 12.89970 0.44100 0.64110
C -14.25590 -0.08010 -0.41870
C 13.96870 -0.57540 1.12830
C -14.13250 1.40210 -0.72320
C 14.25840 -1.64580 0.09140
C -11.76560 -0.01100 0.18730
C 11.70510 -0.27040 -0.03690
C -13.19370 2.06280 0.27490
C 12.99140 -2.42920 -0.21710
C -11.92540 1.28380 0.56000
C 11.75070 -1.57790 -0.39660
C -12.52940 -1.02700 -1.99590
C -13.10740 -2.19990 0.14870
C 13.55560 1.41860 -0.36130
C 12.46730 1.23910 1.89550
C -10.51620 -0.72580 0.39150
C 10.53860 0.56040 -0.28760
C -10.90330 2.12510 1.28900
C 10.61620 -2.36400 -1.01250
C -9.31010 -0.16740 0.20000
C 9.27940 0.12120 -0.13330
C -8.01430 -0.82030 0.38820
C 8.05760 0.89030 -0.37020
C -8.02140 -2.25970 0.84980
C 8.20670 2.30790 -0.86820
C -6.82380 -0.21630 0.18260
C 6.81520 0.39030 -0.19640
C -5.49060 -0.76960 0.33890
C 5.53780 1.04560 -0.39590
C -4.37890 -0.05280 0.09890
C 4.34760 0.45610 -0.19360
C -2.99880 -0.52220 0.22490
C 3.02440 1.06610 -0.35950
C -2.77720 -1.93810 0.69860
C 2.97830 2.49960 -0.82480
C -1.92440 0.25400 -0.03300
C 1.93790 0.30500 -0.10590
C -0.52000 -0.09130 0.05400
C 0.54270 0.68950 -0.20530
H -14.98090 -0.53360 -1.10650
H -14.67800 -0.19420 0.58960
H 14.90070 -0.05780 1.38810
H 13.62610 -1.06790 2.04910
H -15.11800 1.87920 -0.67080
H -13.76570 1.55610 -1.74450
H 15.03090 -2.32890 0.46310
H 14.65550 -1.19470 -0.82530
H -12.93770 3.05890 -0.10720
H -13.72450 2.21230 1.22410
H 13.17990 -3.01840 -1.12290
H 12.79990 -3.14410 0.59350
H -13.34180 -1.53150 -2.53150
H -11.63400 -1.64980 -2.10640
H -12.33010 -0.07880 -2.50700
H -12.27840 -2.88830 -0.04770
H -14.00930 -2.68230 -0.24740
H -13.22890 -2.11220 1.23460
H 12.89730 2.26010 -0.60350
H 13.81320 0.92310 -1.30380
H 14.47660 1.84650 0.05150
H 13.33670 1.66740 2.40810
H 11.93950 0.59770 2.61100
H 11.80230 2.07230 1.64240
H -10.59400 -1.74370 0.75460
H 10.73500 1.56670 -0.64160
H -11.40850 2.79690 1.99390
H -10.34300 2.74870 0.58540
H -10.21310 1.54150 1.90320
H 10.01720 -2.85180 -0.23740
H 11.00830 -3.15870 -1.65890
H 9.98080 -1.76880 -1.67290
H -9.23380 0.84260 -0.19670
H 9.08890 -0.86490 0.28150
H -7.05230 -2.73920 0.97780
H -8.56730 -2.88030 0.12890
H -8.52510 -2.33810 1.82080
H 8.74090 2.91030 -0.12380
H 7.28760 2.84710 -1.09270
H 8.78770 2.31890 -1.79830
H -6.84400 0.82370 -0.14580
H 6.73620 -0.64200 0.14730
H -5.38670 -1.79740 0.65610
H 5.54370 2.07920 -0.71400
H -4.48320 0.98250 -0.22480
H 4.34710 -0.58390 0.13360
H -3.27500 -2.09220 1.66380
H -3.20480 -2.64400 -0.02340
H -1.74570 -2.24970 0.85420
H 3.48310 3.15290 -0.10410
H 1.96770 2.89410 -0.94550
H 3.46960 2.60340 -1.79900
H -2.10610 1.27850 -0.35920
H 2.08590 -0.72590 0.21770
H -0.27640 -1.10400 0.35680
H 0.33410 1.70910 -0.51570
