26
0 1
C          2.85829681      0.21547312     -0.49550750
C          1.48253581      0.74726112     -0.05606050
C          0.33109481     -0.13541388     -0.55853150
C         -1.05441419      0.10782612      0.06201150
C         -1.74129019     -1.23852088     -0.17804550
O         -2.81719919     -1.52368288      0.70110350
C         -0.60671319     -2.23640488      0.04807050
O          3.25048881     -0.90249488      0.29749050
O         -1.81266719      1.14517312     -0.53852450
O          1.45898381      0.91656412      1.35579650
O          0.61167381     -1.52450188     -0.25791650
C         -1.70909919      2.41701712      0.09679450
H          3.61745981      0.98420612     -0.32732050
H          2.84708281     -0.03394688     -1.56610450
H          1.33860081      1.74069912     -0.50109350
H          0.25794181     -0.01255388     -1.65135350
H         -0.95078119      0.27622412      1.14184850
H         -2.08544419     -1.26391888     -1.22244850
H         -3.53768619     -0.91015088      0.50291750
H         -0.67154119     -3.11932088     -0.59463950
H         -0.59236319     -2.55407888      1.09721350
H          2.57760381     -1.59092888      0.15920550
H          2.03708181      0.22873312      1.72505750
H         -2.00405519      2.35681412      1.15302450
H         -0.69266219      2.82598112      0.03962250
H         -2.39292819      3.08394612     -0.43261050
