54

C          1.27793       -1.41818       -3.51378
C          1.27793        1.41818       -3.51378
C         -1.27793       -1.41818       -3.51378
C         -1.27793        1.41818       -3.51378
C          2.54212       -0.00000       -2.07328
C          2.52858       -1.33445       -2.80234
C          1.30128       -1.30128        0.00000
C         -0.00000       -2.51290       -1.67898
C          1.31892       -2.51129       -0.95325
C          2.44218       -2.40439       -1.84976
C          1.30128        1.30128        0.00000
C          0.00000        1.35028       -2.80626
C          1.31892        2.51129       -0.95325
C          2.44218        2.40439       -1.84976
C          1.31676       -0.00000       -0.94292
C          2.52858        1.33445       -2.80234
C         -1.30128       -1.30128        0.00000
C         -2.44218       -2.40439       -1.84976
C         -2.52858       -1.33445       -2.80234
C         -1.31676        0.00000       -0.94292
C          0.00000        0.00000       -1.88125
C         -1.31892       -2.51129       -0.95325
C         -0.00000       -1.35028       -2.80626
C         -1.31892        2.51129       -0.95325
C          0.00000        2.51290       -1.67898
C         -1.30128        1.30128        0.00000
C         -2.44218        2.40439       -1.84976
C         -2.54212        0.00000       -2.07328
C         -2.52858        1.33445       -2.80234
C          2.51290       -0.00000        1.67898
C          2.51129       -1.31892        0.95325
C          1.41818       -1.27793        3.51378
C         -0.00000       -2.54212        2.07328
C          1.33445       -2.52858        2.80234
C          2.40439       -2.44218        1.84976
C          1.41818        1.27793        3.51378
C          0.00000        1.31676        0.94292
C          1.33445        2.52858        2.80234
C          2.40439        2.44218        1.84976
C          1.35028       -0.00000        2.80626
C          2.51129        1.31892        0.95325
C         -1.41818       -1.27793        3.51378
C         -2.40439       -2.44218        1.84976
C         -2.51129       -1.31892        0.95325
C         -1.35028        0.00000        2.80626
C          0.00000        0.00000        1.88125
C         -1.33445       -2.52858        2.80234
C         -0.00000       -1.31676        0.94292
C         -1.33445        2.52858        2.80234
C          0.00000        2.54212        2.07328
C         -1.41818        1.27793        3.51378
C         -2.40439        2.44218        1.84976
C         -2.51290        0.00000        1.67898
C         -2.51129        1.31892        0.95325