26
0 1
C         -2.99721469     -0.66535292     -0.39793023
C         -1.58782069     -0.93957892      0.15105577
C         -0.51409669     -0.11679192     -0.57398923
C          0.89701331     -0.23388092      0.01690777
C          1.48485931      1.16427608     -0.21212023
O          2.53195931      1.42571708      0.71787777
C          0.25105831      2.05579208     -0.02531123
O         -3.48778169      0.59518308      0.05886377
O          1.57153531     -1.29378892     -0.63476623
O         -1.56702169     -0.72049292      1.55783877
O         -0.84799069      1.29639208     -0.55162923
C          2.71685831     -1.78265392      0.06072677
H         -3.69439969     -1.41502592     -0.01401423
H         -2.99728869     -0.72221392     -1.49599423
H         -1.33979269     -1.99615492     -0.01626723
H         -0.48025969     -0.43980792     -1.62398523
H          0.84319731     -0.41576192      1.09969577
H          1.85897631      1.22228708     -1.24395823
H          2.98927431      2.23915008      0.46837077
H          0.30095231      3.00308608     -0.57195223
H          0.10342831      2.26167308      1.04376177
H         -2.85555869      1.26944108     -0.24341923
H         -2.21449769     -0.01895092      1.73582977
H          3.49862331     -1.01895692      0.14202177
H          2.44665731     -2.12293892      1.07021477
H          3.08933031     -2.63064592     -0.51782823
