26
0 1
C          2.34471662     -0.03667100      0.86868415
C          1.27996162     -0.99334500      0.33476915
C          0.20101662     -0.30558300     -0.51316985
C         -0.84838138      0.50730900      0.28420115
C         -2.07028038     -0.42282200      0.31925415
O         -1.89926638     -1.27144400      1.45644015
C         -1.93443538     -1.16473800     -1.00845785
O          3.04321162      0.63263900     -0.17552385
O         -1.23935738      1.69560200     -0.38799185
O          1.98440062     -1.94630700     -0.46779185
O         -0.52996238     -1.35081500     -1.20136885
C         -0.30962438      2.76591100     -0.26106585
H          1.89277462      0.74037200      1.49209315
H          3.03972862     -0.61203100      1.49647415
H          0.79498962     -1.49958900      1.18228815
H          0.67761262      0.32941500     -1.26743785
H         -0.51967138      0.73502000      1.30735715
H         -2.99721238      0.15793000      0.38991315
H         -2.58572838     -1.95095000      1.45425715
H         -2.41324838     -2.14980500     -1.01335785
H         -2.35531838     -0.55659100     -1.82186585
H          3.36282462     -0.05460600     -0.77925785
H          1.32059962     -2.42276400     -0.98952685
H         -0.19307438      3.05890400      0.79287615
H          0.67658162      2.50895300     -0.66919385
H         -0.72285738      3.60600600     -0.82259785
