49

O  	 -3.09435 	 -1.20613 	 -1.58879
O  	  0.16545 	  2.82487 	 -1.63349
O  	  1.42455 	  3.47607 	  0.75781
N  	 -3.06585 	 -0.99613 	  0.72701
C  	 -0.17555 	 -2.78903 	 -0.23269
C  	 -1.37915 	 -3.42203 	  0.47611
C  	  1.14255 	 -2.97203 	  0.52761
C  	 -2.69005 	 -3.16803 	 -0.26789
C  	  4.29695 	 -0.82203 	 -0.34759
C  	  2.32245 	 -2.36803 	 -0.17829
C  	 -2.96915 	 -1.69123 	 -0.46649
C  	  3.10775 	 -1.42223 	  0.35861
C  	 -3.33285 	  0.42207 	  0.79551
C  	 -2.06945 	  1.23307 	  0.78181
C  	  5.57545 	 -1.10003 	  0.44241
C  	  4.09585 	  0.68147 	 -0.53399
C  	 -1.52755 	  1.65987 	 -0.43049
C  	 -1.43755 	  1.55997 	  1.98171
C  	 -0.35385 	  2.41377 	 -0.44309
C  	 -0.26375 	  2.31337 	  1.96911
C  	  0.27805 	  2.74047 	  0.75671
C  	 -0.54145 	  2.44877 	 -2.81359
H  	 -0.08275 	 -3.22353 	 -1.23629
H  	 -0.34205 	 -1.71393 	 -0.37139
H  	 -1.43895 	 -3.03883 	  1.50121
H  	 -1.22325 	 -4.50453 	  0.55761
H  	  1.03835 	 -2.54833 	  1.53421
H  	  1.33645 	 -4.04373 	  0.65821
H  	 -3.52655 	 -3.60773 	  0.28731
H  	 -2.66145 	 -3.64963 	 -1.25219
H  	  4.40845 	 -1.27393 	 -1.34149
H  	  2.54085 	 -2.74323 	 -1.17499
H  	  2.88845 	 -1.05363 	  1.35841
H  	 -3.89775 	  0.60657 	  1.71641
H  	 -3.98325 	  0.71147 	 -0.03839
H  	 -2.96475 	 -1.49443 	  1.60581
H  	  6.44775 	 -0.68793 	 -0.07629
H  	  5.73655 	 -2.17733 	  0.56131
H  	  5.53685 	 -0.65293 	  1.44231
H  	  3.99955 	  1.19807 	  0.42781
H  	  4.94415 	  1.12217 	 -1.06869
H  	  3.19095 	  0.88687 	 -1.11709
H  	 -2.06285 	  1.37977 	 -1.33099
H  	 -1.84875 	  1.23147 	  2.93251
H  	  0.21865 	  2.56017 	  2.91111
H  	  1.72015 	  3.60057 	  1.67601
H  	  0.01255 	  2.85797 	 -3.66479
H  	 -1.54245 	  2.89257 	 -2.84369
H  	 -0.56245 	  1.36107 	 -2.94239
