30
generated via python
C -0.43490 0.56470 0.00040
C 0.43500 -0.56470 0.00040
C -1.86930 0.39030 0.00030
C 1.86940 -0.39030 0.00020
C -2.40740 -0.91890 0.00020
C 2.40740 0.91880 0.00010
C 0.16790 1.83900 0.00050
C -0.16790 -1.83910 0.00040
C 1.55000 2.01420 0.00030
C -1.55000 -2.01410 0.00030
C -2.81130 1.45320 0.00000
C 2.81130 -1.45320 0.00000
C -3.79740 -1.13130 -0.00030
C 3.79730 1.13130 -0.00030
C -4.19210 1.23260 -0.00060
C 4.19210 -1.23250 -0.00040
C -4.68560 -0.06170 -0.00070
C 4.68560 0.06160 -0.00070
H -0.42840 2.74770 0.00060
H 0.42840 -2.74780 0.00040
H 1.94280 3.02940 0.00030
H -1.94280 -3.02940 0.00020
H -2.48920 2.49120 0.00000
H 2.48920 -2.49120 0.00010
H -4.20270 -2.14180 -0.00040
H 4.20260 2.14170 -0.00040
H -4.87550 2.07680 -0.00090
H 4.87550 -2.07670 -0.00070
H -5.75640 -0.24010 -0.00110
H 5.75640 0.24010 -0.00110
