53
generated via python
O 0.01710 3.71890 -0.46520
O -6.88650 -0.37820 -1.62180
O 8.17530 -0.03260 -1.10150
N 0.70780 1.59140 0.29050
N -1.16620 0.76330 1.17400
N 2.14480 -0.70450 0.90520
C 0.10130 0.53750 0.92340
C 0.87940 -0.63650 1.22350
C -1.38630 2.02670 0.67540
C -0.24090 2.55990 0.12180
C 0.21500 -1.79420 1.91090
C -2.72050 2.64090 0.77090
C 2.04700 1.51870 -0.04680
C 2.72990 0.39260 0.26790
C -0.63030 -2.57290 0.94840
C -3.83920 1.83090 0.12810
C 4.16150 0.27980 -0.09090
C -4.67700 1.04740 0.92190
C -4.02550 1.87180 -1.25370
C -2.00010 -2.70850 1.17400
C -0.04670 -3.16160 -0.17330
C 5.08220 1.19630 0.41720
C 4.58980 -0.74210 -0.93830
C -5.70140 0.30530 0.33390
C -5.04970 1.12980 -1.84170
C -2.78640 -3.43270 0.27780
C -0.83280 -3.88570 -1.06960
C 6.43100 1.09120 0.07770
C 5.93860 -0.84740 -1.27780
C -5.88760 0.34650 -1.04790
C -2.20270 -4.02140 -0.84400
C 6.85910 0.06930 -0.76980
H -0.38010 -1.41470 2.75020
H 0.97740 -2.45660 2.33850
H -2.73100 3.64300 0.32450
H -2.95770 2.80190 1.83090
H 2.48410 2.37240 -0.55170
H -4.54070 1.00410 1.99910
H -3.37840 2.47840 -1.88170
H -2.46940 -2.25360 2.04220
H 1.02000 -3.07330 -0.36050
H -0.80610 4.23620 -0.47060
H 4.76910 1.99660 1.08340
H 3.88500 -1.46320 -1.34550
H -6.34640 -0.30200 0.96320
H -5.18970 1.16560 -2.91860
H -3.85320 -3.53680 0.45270
H -0.37820 -4.34540 -1.94230
H 7.14370 1.80750 0.47730
H 6.25940 -1.64740 -1.93950
H -2.81480 -4.58510 -1.54190
H -7.36540 -0.86070 -0.92610
H 8.29250 -0.79470 -1.69450
