52

O  	  0.86546 	 -2.07483 	  0.60524
O  	  3.59906 	 -1.94323 	  0.52034
O  	  4.85266 	  0.23807 	 -0.62606
O  	 -5.03854 	 -1.48623 	 -1.01186
O  	 -4.51394 	 -0.57433 	  1.52804
N  	  0.09366 	  2.23247 	  1.76014
C  	 -0.86634 	  2.35917 	  0.65254
C  	 -0.23824 	  3.11917 	 -0.54326
C  	  0.52416 	  2.32047 	 -1.60866
C  	 -1.56104 	  1.03147 	  0.31114
C  	  1.33916 	  1.18007 	 -1.06146
C  	  0.69426 	  0.06387 	 -0.48916
C  	 -0.79484 	  0.01987 	 -0.43266
C  	  1.46396 	 -0.97913 	  0.04964
C  	  2.73896 	  1.22457 	 -1.09776
C  	 -2.81044 	  0.85607 	  0.78124
C  	 -1.33594 	 -0.95033 	 -1.19476
C  	  2.85666 	 -0.92133 	  0.00574
C  	  3.49266 	  0.17707 	 -0.56846
C  	 -0.57864 	  1.76687 	  2.95824
C  	 -3.72134 	 -0.30243 	  0.62814
C  	 -2.72234 	 -1.23983 	 -1.45326
C  	 -3.78114 	 -1.02013 	 -0.66556
C  	  0.57466 	 -2.01373 	  1.99854
C  	  4.49806 	 -1.62033 	  1.57834
C  	  5.47686 	 -0.31123 	 -1.78456
C  	 -5.74024 	 -0.51313 	 -1.75676
H  	 -1.63314 	  3.06347 	  1.01194
H  	  0.43036 	  3.90087 	 -0.15556
H  	 -1.03654 	  3.66927 	 -1.06116
H  	 -0.18184 	  1.92357 	 -2.35026
H  	  1.16376 	  3.01027 	 -2.17406
H  	  0.51556 	  3.14187 	  1.94714
H  	  3.24566 	  2.08107 	 -1.53656
H  	 -3.25184 	  1.63687 	  1.40004
H  	 -0.67834 	 -1.61543 	 -1.75756
H  	 -1.42734 	  2.40157 	  3.23504
H  	 -0.90504 	  0.72607 	  2.88614
H  	  0.13016 	  1.80197 	  3.79294
H  	 -2.88784 	 -1.78953 	 -2.37926
H  	 -0.39514 	 -1.53383 	  2.15364
H  	  1.35056 	 -1.47643 	  2.55424
H  	  0.51866 	 -3.03663 	  2.38084
H  	  5.50516 	 -1.46623 	  1.18104
H  	  4.17296 	 -0.74113 	  2.14584
H  	  4.53196 	 -2.47303 	  2.26284
H  	  5.24086 	 -1.37563 	 -1.88246
H  	  5.16016 	  0.22827 	 -2.68276
H  	  6.55926 	 -0.20213 	 -1.67436
H  	 -6.72774 	 -0.91623 	 -2.00056
H  	 -5.88644 	  0.40547 	 -1.17756
H  	 -5.22894 	 -0.28533 	 -2.69876
