30

C  	 -1.04869 	 -0.48480 	 -0.00022
C  	  0.13691 	 -1.14720 	 -0.00022
C  	 -0.78509 	  0.84760 	 -0.00022
C  	  1.13341 	 -0.22440 	 -0.00022
C  	  0.56351 	  1.00860 	 -0.00022
C  	 -2.31429 	 -1.06970 	 -0.00002
C  	  0.30221 	 -2.53160 	 -0.00002
C  	 -1.73249 	  1.87050 	 -0.00012
C  	  2.50111 	 -0.49500 	 -0.00002
C  	  1.24361 	  2.22570 	 -0.00002
C  	 -2.23029 	 -2.52300 	  0.00028
C  	 -3.36679 	 -0.06390 	  0.00008
C  	 -0.97969 	 -3.22170 	  0.00018
C  	  1.71051 	 -2.90070 	 -0.00002
C  	 -3.08889 	  1.34130 	 -0.00002
C  	 -1.10119 	  3.18230 	  0.00008
C  	  2.76141 	 -1.92730 	  0.00008
C  	  3.28731 	  0.73040 	  0.00008
C  	  0.32121 	  3.35210 	  0.00018
C  	  2.68631 	  2.03070 	  0.00018
H  	 -3.15449 	 -3.09780 	  0.00048
H  	 -4.40359 	 -0.39560 	  0.00028
H  	 -0.98469 	 -4.31010 	  0.00028
H  	  1.97151 	 -3.95740 	 -0.00002
H  	 -3.92109 	  2.04270 	  0.00018
H  	 -1.73699 	  4.06580 	  0.00018
H  	  3.79511 	 -2.26840 	  0.00008
H  	  4.37291 	  0.65210 	  0.00028
H  	  0.73111 	  4.36040 	  0.00038
H  	  3.33011 	  2.90840 	  0.00038
