16
generated via python
C -0.95200 0.65960 -0.65320
C -0.91730 0.42510 0.86370
C -0.56930 -0.80850 -0.88900
C 0.53460 1.04310 -0.62790
C -0.53460 -1.04310 0.62790
C 0.56920 0.80840 0.88890
C 0.91730 -0.42510 -0.86360
C 0.95190 -0.65960 0.65320
H -1.72680 1.19660 -1.18500
H -1.66390 0.77120 1.56680
H -1.03260 -1.46660 -1.61270
H 0.96980 1.89210 -1.13910
H -0.96980 -1.89210 1.13900
H 1.03260 1.46650 1.61260
H 1.66390 -0.77120 -1.56670
H 1.72680 -1.19660 1.18500
