90

O         -2.96116        0.00000        3.15478
O          2.39563       -1.74053        3.15478
O         -0.91505       -2.81623        3.15478
O          2.39563        1.74053        3.15478
O         -0.91505        2.81623        3.15478
C          3.88480       -1.86167        0.00000
C          2.97102       -3.11938        0.00000
N          2.23638       -3.01784       -1.22336
C          2.67349       -1.94241       -1.98637
N          3.56122       -1.19436       -1.22336
N          3.56122       -1.19436        1.22336
C          2.67349       -1.94241        1.98637
N          2.23638       -3.01784        1.22336
O          2.39563       -1.74053       -3.15478
H          3.56727       -4.03930       -0.00000
H          4.94395       -2.14446        0.00000
C         -0.57008       -4.26995        0.00000
C         -2.04861       -3.78955        0.00000
N         -2.17906       -3.05949       -1.22336
C         -1.02118       -3.14288       -1.98637
N         -0.03543       -3.75600       -1.22336
N         -0.03543       -3.75600        1.22336
C         -1.02118       -3.14288        1.98637
N         -2.17906       -3.05949        1.22336
O         -0.91505       -2.81623       -3.15478
C         -0.57008        4.26995        0.00000
C         -2.04861        3.78955        0.00000
N         -2.17906        3.05949        1.22336
C         -1.02118        3.14288        1.98637
N         -0.03543        3.75600        1.22336
N         -0.03543        3.75600       -1.22336
C         -1.02118        3.14288       -1.98637
N         -2.17906        3.05949       -1.22336
O         -0.91505        2.81623       -3.15478
H         -2.73925        4.64089        0.00000
H         -0.51174        5.36465       -0.00000
C         -4.23713       -0.77730        0.00000
C         -4.23713        0.77730        0.00000
N         -3.58311        1.12697       -1.22336
C         -3.30462        0.00000       -1.98637
N         -3.58311       -1.12697       -1.22336
N         -3.58311       -1.12697        1.22336
C         -3.30462        0.00000        1.98637
N         -3.58311        1.12697        1.22336
O         -2.96116        0.00000       -3.15478
H         -5.26022        1.17107       -0.00000
C          2.97102        3.11938        0.00000
C          3.88480        1.86167        0.00000
N          3.56122        1.19436       -1.22336
C          2.67349        1.94241       -1.98637
N          2.23638        3.01784       -1.22336
N          2.23638        3.01784        1.22336
C          2.67349        1.94241        1.98637
N          3.56122        1.19436        1.22336
O          2.39563        1.74053       -3.15478
C          4.20187       -0.00000        1.69590
C          4.20187       -0.00000       -1.69590
C          1.29845        3.99622        1.69590
C          1.29845        3.99622       -1.69590
C         -3.39939        2.46980        1.69590
C         -3.39939        2.46980       -1.69590
C         -3.39939       -2.46980        1.69590
C         -3.39939       -2.46980       -1.69590
C          1.29845       -3.99622        1.69590
C          1.29845       -3.99622       -1.69590
H          5.25132       -0.00000        1.38238
H          4.18331       -0.00000        2.79091
H          4.18331       -0.00000       -2.79091
H          5.25132       -0.00000       -1.38238
H          1.29271        3.97856        2.79091
H          1.62275        4.99430        1.38238
H          1.62275        4.99430       -1.38238
H          1.29271        3.97856       -2.79091
H         -4.24840        3.08665        1.38238
H         -3.38437        2.45889        2.79091
H         -4.24840        3.08665       -1.38238
H         -3.38437        2.45889       -2.79091
H         -4.24840       -3.08665        1.38238
H         -3.38437       -2.45889        2.79091
H         -3.38437       -2.45889       -2.79091
H         -4.24840       -3.08665       -1.38238
H          1.29271       -3.97856        2.79091
H          1.62275       -4.99430        1.38238
H          1.62275       -4.99430       -1.38238
H          1.29271       -3.97856       -2.79091
H         -0.51174       -5.36465        0.00000
H         -2.73925       -4.64089       -0.00000
H         -5.26022       -1.17107        0.00000
H          3.56727        4.03930        0.00000
H          4.94395        2.14446       -0.00000