71

O  	  2.84232 	 -0.11084 	  0.83734
O  	 -8.14008 	  0.97416 	  0.00394
N  	  5.89152 	 -0.00094 	 -1.12876
C  	 -2.55268 	 -0.09654 	 -0.46956
C  	 -1.93538 	 -1.01654 	  0.59064
C  	 -0.62358 	 -1.42584 	 -0.07516
C  	 -3.85258 	  0.59636 	  0.03584
C  	  2.26522 	 -0.73014 	 -0.36256
C  	 -0.16488 	 -0.12084 	 -0.68446
C  	 -1.36978 	  0.76876 	 -0.92846
C  	  0.41632 	 -2.01794 	  0.86134
C  	  3.45552 	 -0.83974 	 -1.39936
C  	  1.73532 	 -2.11734 	  0.09544
C  	  1.13462 	  0.22456 	 -0.80986
C  	 -2.89048 	 -2.15754 	  0.92324
C  	  4.48052 	  0.12296 	 -0.79096
C  	 -4.75218 	 -0.45614 	  0.70884
C  	  4.26042 	 -0.10964 	  0.68764
C  	 -4.57958 	  1.20366 	 -1.19556
C  	 -4.30628 	 -1.67384 	  1.08044
C  	 -3.55738 	  1.71366 	  1.06224
C  	 -6.19408 	 -0.06714 	  0.93594
C  	 -6.01378 	  1.64626 	 -0.91036
C  	  4.96772 	  0.95996 	  1.50134
C  	 -6.83828 	  0.50046 	 -0.32696
C  	  4.03512 	 -2.24534 	 -1.61596
C  	  1.52672 	  1.59606 	 -1.30316
C  	  6.46182 	  0.94996 	  1.12914
C  	  6.66772 	  1.01686 	 -0.40176
C  	  7.19852 	  2.09226 	  1.82454
H  	 -2.82978 	 -0.72994 	 -1.33016
H  	 -1.72188 	 -0.45284 	  1.50994
H  	 -0.82508 	 -2.13224 	 -0.89316
H  	 -1.27278 	  1.68106 	 -0.33496
H  	 -1.47188 	  1.03096 	 -1.98616
H  	  0.10042 	 -3.01314 	  1.19404
H  	  0.54482 	 -1.40194 	  1.75984
H  	  3.14572 	 -0.48904 	 -2.39116
H  	  2.46802 	 -2.60994 	  0.74604
H  	  1.56322 	 -2.76734 	 -0.77046
H  	 -2.56618 	 -2.64254 	  1.85104
H  	 -2.87408 	 -2.92434 	  0.13964
H  	  4.16302 	  1.13886 	 -1.05876
H  	  4.62602 	 -1.09594 	  1.00474
H  	 -4.61588 	  0.46376 	 -2.00706
H  	 -4.01188 	  2.05736 	 -1.58676
H  	 -4.99748 	 -2.38104 	  1.53274
H  	 -2.96248 	  1.34866 	  1.90564
H  	 -3.01618 	  2.54846 	  0.60554
H  	 -4.47348 	  2.13876 	  1.48634
H  	 -6.79168 	 -0.91934 	  1.28484
H  	 -6.24858 	  0.66756 	  1.74944
H  	 -6.02438 	  2.50826 	 -0.23216
H  	 -6.48458 	  2.00006 	 -1.83576
H  	  4.82872 	  0.77266 	  2.57264
H  	  4.51962 	  1.94236 	  1.30444
H  	 -6.95598 	 -0.29134 	 -1.07606
H  	  3.29592 	 -2.90694 	 -2.07796
H  	  4.88672 	 -2.21044 	 -2.30436
H  	  4.38012 	 -2.70554 	 -0.68536
H  	  2.10762 	  2.12446 	 -0.54076
H  	  0.66832 	  2.23116 	 -1.53946
H  	  2.11872 	  1.52726 	 -2.21996
H  	  6.01852 	  0.12816 	 -2.13196
H  	  6.89372 	  0.00486 	  1.48694
H  	  6.40132 	  2.01396 	 -0.77556
H  	  7.72942 	  0.86786 	 -0.62996
H  	  8.26852 	  2.06146 	  1.59374
H  	  6.81142 	  3.06656 	  1.50774
H  	  7.08742 	  2.02076 	  2.91164
H  	 -8.04388 	  1.68916 	  0.65604
