11
generated via python
O  	  1.81690 	  0.00000 	  0.08810
C  	 -1.50640 	 -0.00010 	  0.16740
C  	 -0.46030 	  1.10530 	 -0.11580
C  	 -0.46030 	 -1.10520 	 -0.11580
C  	  0.61010 	  0.00000 	 -0.02380
H  	 -1.87180 	 -0.00010 	  1.20080
H  	 -2.36890 	 -0.00010 	 -0.50570
H  	 -0.38210 	  1.87980 	  0.64950
H  	 -0.52430 	  1.55670 	 -1.10950
H  	 -0.52420 	 -1.55670 	 -1.10950
H  	 -0.38190 	 -1.87980 	  0.64940
