34
generated via python
P 4.51560 0.27910 -0.64200
O 0.85420 -0.01490 1.63870
O 3.21120 -0.63610 -0.97360
O 4.42040 0.62590 0.94300
O 1.24780 -2.51340 -0.33560
O 4.21050 1.69270 -1.37010
O 5.82090 -0.33810 -1.05630
N -1.17650 0.07560 0.39690
N -2.37680 1.90020 -0.05290
N -2.90330 -1.62030 0.18850
N -5.05670 -0.62690 -0.38780
N -5.34440 1.72910 -0.69290
C 2.00670 -0.22870 -0.36500
C 2.18010 -0.17470 1.13840
C 0.82400 -1.16190 -0.48710
C -0.01690 -0.74980 0.73630
C 3.14820 0.92720 1.51880
C -2.45020 -0.35790 0.16000
C -1.18350 1.43860 0.25780
C -3.17830 0.78810 -0.11730
C -4.53060 0.62140 -0.39900
C -4.22270 -1.65510 -0.09890
H 1.71500 0.75250 -0.76030
H 2.58320 -1.12680 1.51200
H 0.30890 -1.07750 -1.44870
H -0.39330 -1.61750 1.29060
H 2.81000 1.91070 1.17590
H 3.25990 0.98470 2.60600
H 0.45090 -3.07050 -0.35550
H -0.29690 2.04410 0.38900
H 3.39380 2.18780 -1.14850
H -4.67760 -2.63980 -0.09890
H -6.32390 1.58210 -0.89490
H -4.95400 2.66170 -0.70240
