18
generated via python
C  	  0.17840 	 -3.70060 	  0.00000
C  	 -1.01430 	 -3.56340 	  0.00010
C  	  1.51360 	 -3.38170 	  0.00000
C  	 -2.24220 	 -2.94950 	  0.00010
C  	  2.51540 	 -2.72020 	  0.00000
C  	 -3.06760 	 -2.07790 	  0.00000
C  	  3.33330 	 -1.61760 	 -0.00010
C  	 -3.61360 	 -0.81830 	 -0.00010
C  	  3.67550 	 -0.46700 	 -0.00010
C  	 -3.68550 	  0.38000 	 -0.00010
C  	  3.59330 	  0.90340 	 -0.00010
C  	 -3.29410 	  1.69590 	  0.00000
C  	  3.11590 	  2.00480 	  0.00010
C  	 -2.57890 	  2.66010 	  0.00000
C  	  2.17180 	  3.00150 	  0.00010
C  	 -1.43330 	  3.41650 	  0.00000
C  	  1.09810 	  3.53840 	  0.00000
C  	 -0.26570 	  3.69540 	  0.00000
