15
generated via python
O  	  0.00080 	 -0.27620 	  0.00000
C  	  1.17470 	  0.52220 	  0.00000
C  	 -1.17540 	  0.52260 	  0.00000
C  	  2.38730 	 -0.38400 	  0.00000
C  	 -2.38740 	 -0.38440 	  0.00000
H  	  1.19050 	  1.15900 	 -0.89160
H  	  1.19050 	  1.15880 	  0.89160
H  	 -1.19090 	  1.15900 	  0.89180
H  	 -1.19080 	  1.15900 	 -0.89180
H  	  3.31190 	  0.20000 	  0.00000
H  	  2.38140 	 -1.03620 	  0.87960
H  	  2.38150 	 -1.03620 	 -0.87960
H  	 -3.31250 	  0.19890 	  0.00010
H  	 -2.38100 	 -1.03660 	 -0.87960
H  	 -2.38110 	 -1.03660 	  0.87960
