16

N 	 -0.000400	 -0.318600	 -0.006500
C 	  1.200200	  0.507600	 -0.000100
C 	 -1.199900	  0.507300	  0.000400
C 	  2.455600	 -0.348300	  0.003300
C 	 -2.455500	 -0.348000	  0.003000
H 	  1.220200	  1.159700	 -0.881400
H 	  1.213200	  1.147000	  0.890300
H 	 -1.213100	  1.146200	  0.891200
H 	 -1.219900	  1.160200	 -0.880400
H 	 -0.000400	 -0.922400	 -0.828200
H 	  2.489500	 -0.996300	  0.885600
H 	  2.505800	 -0.981300	 -0.889100
H 	  3.346900	  0.287200	  0.016600
H 	 -2.505900	 -0.980400	 -0.889800
H 	 -2.489900	 -0.996700	  0.884900
H 	 -3.346500	  0.287800	  0.016700
