18
generated via python
O -0.10470 1.35960 0.09220
O 0.10470 -1.35950 0.09230
O 2.13470 1.45880 0.39620
O -2.13470 -1.45890 0.39610
C -1.17990 0.59650 -0.46430
C 1.18000 -0.59650 -0.46430
C 1.14300 0.82430 0.05590
C -1.14310 -0.82440 0.05590
C -2.47530 1.29700 -0.07990
C 2.47530 -1.29700 -0.08000
H -1.09040 0.58420 -1.55680
H 1.09040 -0.58420 -1.55690
H -2.46980 2.33440 -0.43120
H -3.34680 0.78880 -0.50440
H -2.59480 1.33070 1.00900
H 2.46980 -2.33450 -0.43120
H 3.34680 -0.78880 -0.50450
H 2.59490 -1.33070 1.00900
