9

O 	 -1.171200	  0.299700	  0.000000
C 	 -0.046300	 -0.566500	  0.000000
C 	  1.217500	  0.266800	  0.000000
H 	 -0.095800	 -1.212000	  0.881900
H 	 -0.095200	 -1.193800	 -0.894600
H 	  2.105000	 -0.372000	 -0.017700
H 	  1.242600	  0.930700	 -0.870400
H 	  1.261600	  0.905200	  0.888600
H 	 -1.129100	  0.836400	  0.809900
