11

C  	 -0.00070 	  1.26060 	  0.00000
C  	  1.16720 	  0.31720 	  0.00000
C  	 -1.16760 	  0.31590 	  0.00000
C  	  0.72030 	 -0.94640 	  0.00000
C  	 -0.71920 	 -0.94720 	  0.00000
H  	 -0.00110 	  1.88940 	  0.89510
H  	 -0.00100 	  1.88940 	 -0.89510
H  	  2.20490 	  0.61460 	  0.00000
H  	 -2.20560 	  0.61220 	  0.00000
H  	  1.32850 	 -1.83640 	  0.00000
H  	 -1.32640 	 -1.83780 	  0.00010
