37

O  	  0.00533 	  1.00238 	  1.69368
O  	 -0.00357 	 -2.38862 	 -0.56722
O  	  0.01233 	  3.13698 	  2.58918
O  	  4.70113 	 -2.77732 	 -0.23382
O  	 -4.71017 	 -2.75202 	 -0.23352
C  	  0.00393 	  0.37818 	  0.37038
C  	  0.00753 	  1.57438 	 -0.52612
C  	  1.26033 	 -0.46022 	  0.24188
C  	 -1.25717 	 -0.45312 	  0.24128
C  	  0.01063 	  2.72988 	  0.23428
C  	  1.17883 	 -1.77442 	 -0.23212
C  	 -1.18257 	 -1.76802 	 -0.23222
C  	  0.00893 	  2.37318 	  1.64488
C  	  0.00823 	  1.65098 	 -1.91012
C  	  2.52903 	  0.05668 	  0.55908
C  	 -2.52307 	  0.07088 	  0.55768
C  	  0.01473 	  3.99398 	 -0.32582
C  	  2.33193 	 -2.54932 	 -0.39602
C  	 -2.33997 	 -2.53682 	 -0.39562
C  	  0.01233 	  2.91568 	 -2.50572
C  	  3.67913 	 -0.71892 	  0.40228
C  	 -3.67737 	 -0.69862 	  0.40108
C  	  0.01563 	  4.07938 	 -1.71832
C  	  3.58053 	 -2.02132 	 -0.07722
C  	 -3.58577 	 -2.00202 	 -0.07742
H  	  0.00583 	  0.75618 	 -2.52332
H  	  2.63663 	  1.07388 	  0.92708
H  	 -2.62517 	  1.08888 	  0.92508
H  	  0.01723 	  4.88968 	  0.28478
H  	  2.24773 	 -3.56732 	 -0.76942
H  	 -2.26837 	 -3.55602 	 -0.76792
H  	  0.01293 	  3.00108 	 -3.58912
H  	  4.64883 	 -0.29752 	  0.65288
H  	 -4.64177 	 -0.26562 	  0.65308
H  	  0.01883 	  5.05338 	 -2.20002
H  	  4.44663 	 -3.65182 	 -0.57512
H  	 -5.48137 	 -2.22352 	  0.03458
