59
generated via python
O -1.92220 -1.67780 1.67380
O 1.86660 0.01240 -1.81330
O -4.41400 -1.65810 0.55400
O 1.54700 -2.68580 -0.95610
O 4.85820 0.91470 1.43760
C -1.43270 -0.36390 -0.35700
C -1.02830 1.09540 -0.78400
C -1.78930 -0.36680 1.14260
C 1.34580 0.82700 0.41390
C 1.88530 -0.35630 -0.43280
C -3.16050 0.34160 1.12490
C 0.24840 1.75340 -0.15320
C -2.83040 -0.73130 -1.02930
C -0.44660 -1.44010 -0.85490
C -3.91890 -0.42030 0.01750
C 0.95820 -1.57470 -0.26260
C -2.22350 2.07000 -0.53450
C 3.40470 -0.54810 0.05450
C -2.93790 1.82920 0.80440
C 2.60180 1.58200 0.86470
C 3.53630 0.45020 1.23690
C 0.79610 2.82960 -1.12030
C -5.15140 0.26950 -0.55540
C 4.41930 -0.21210 -1.06600
C 3.78820 -1.93980 0.59480
H -0.86510 1.06870 -1.87140
H -1.07580 0.16780 1.77140
H 0.94460 0.39580 1.34070
H -3.66380 0.23070 2.09250
H -0.09230 2.32310 0.72450
H -2.96840 -0.17410 -1.96270
H -2.88130 -1.79420 -1.29650
H -0.35970 -1.35080 -1.94790
H -0.91860 -2.42480 -0.71690
H 0.88610 -1.85240 0.79520
H -2.93560 1.97060 -1.35970
H -1.91220 3.11960 -0.57640
H -2.34050 2.27490 1.60990
H -3.89350 2.36600 0.80700
H 3.05190 2.19230 0.07500
H 2.40840 2.24210 1.71700
H 3.19300 -0.00300 2.17620
H 1.45580 3.53030 -0.59900
H 1.35140 2.39110 -1.95290
H -0.00460 3.43610 -1.55440
H -4.92580 1.19590 -1.08660
H -5.67090 -0.39460 -1.25650
H -5.86870 0.50140 0.24050
H 4.29270 0.80960 -1.43920
H 5.45370 -0.30650 -0.71620
H 4.30990 -0.89930 -1.91260
H 3.09430 -2.28410 1.36820
H 3.82560 -2.68920 -0.20160
H 4.78640 -1.92480 1.04850
H -2.24220 -1.59180 2.58790
H 2.08460 -0.77880 -2.33500
H -5.02150 -1.44630 1.28340
H 1.03810 -3.48160 -0.72510
H 5.40270 0.15400 1.70110
