30
[(0, 0), (0, 1), (0, 2), (0, 3), (0, 4), (0, 5), (0, 6)]
C       0.000000    0.000000    0.000000
C       0.000000    1.420000    0.000000
C       1.229756    2.130000    0.000000
C       1.229756   -0.710000    0.000000
C       2.459512    0.000000    0.000000
C       2.459512    1.420000    0.000000
C       3.689268    2.130000    0.000000
C       3.689268   -0.710000    0.000000
C       4.919024    0.000000    0.000000
C       4.919024    1.420000    0.000000
C       6.148780    2.130000    0.000000
C       6.148780   -0.710000    0.000000
C       7.378536    0.000000    0.000000
C       7.378536    1.420000    0.000000
C       8.608293    2.130000    0.000000
C       8.608293   -0.710000    0.000000
C       9.838049    0.000000    0.000000
C       9.838049    1.420000    0.000000
C      11.067805    2.130000    0.000000
C      11.067805   -0.710000    0.000000
C      12.297561    0.000000    0.000000
C      12.297561    1.420000    0.000000
C      13.527317    2.130000    0.000000
C      13.527317   -0.710000    0.000000
C      14.757073    0.000000    0.000000
C      14.757073    1.420000    0.000000
C      15.986829    2.130000    0.000000
C      15.986829   -0.710000    0.000000
C      17.216585    0.000000    0.000000
C      17.216585    1.420000    0.000000
