72

C  	 -0.68632 	  1.21490 	 -0.00011
C  	  0.70848 	  1.20060 	 -0.00031
C  	 -1.39612 	  0.01430 	 -0.00021
C  	  1.40468 	 -0.01480 	 -0.00051
C  	 -0.71122 	 -1.20080 	 -0.00031
C  	  0.68358 	 -1.21540 	 -0.00041
C  	 -1.40242 	  2.48540 	 -0.00011
C  	  1.45038 	  2.45560 	  0.00019
C  	 -2.85432 	  0.02950 	 -0.00031
C  	  2.85158 	 -0.02960 	 -0.00071
C  	 -1.45382 	 -2.45600 	 -0.00001
C  	  1.39948 	 -2.48560 	  0.00009
C  	 -1.73942 	  3.08300 	 -1.20791
C  	  1.80008 	  3.04680 	 -1.20751
C  	 -3.54062 	  0.03650 	  1.20739
C  	  3.54878 	 -0.03660 	 -1.20861
C  	 -1.80292 	 -3.04620 	  1.20819
C  	  1.73598 	 -3.08320 	  1.20819
C  	 -1.73912 	  3.08270 	  1.20799
C  	  1.79908 	  3.04620 	  1.20839
C  	 -3.54012 	  0.03710 	 -1.20841
C  	  3.54898 	 -0.03650 	  1.20719
C  	 -1.80322 	 -3.04660 	 -1.20781
C  	  1.73648 	 -3.08370 	 -1.20771
C  	 -2.42462 	  4.29810 	 -1.20771
C  	  2.50978 	  4.24770 	 -1.20701
C  	 -4.93552 	  0.05110 	  1.20739
C  	  4.94378 	 -0.05070 	 -1.20891
C  	 -2.51332 	 -4.24670 	  1.20849
C  	  2.42078 	 -4.29860 	  1.20859
C  	 -2.42442 	  4.29770 	  1.20829
C  	  2.50868 	  4.24710 	  1.20899
C  	 -4.93502 	  0.05190 	 -1.20871
C  	  4.94388 	 -0.05040 	  1.20709
C  	 -2.51362 	 -4.24700 	 -1.20751
C  	  2.42098 	 -4.29900 	 -1.20731
C  	 -2.76702 	  4.90540 	  0.00029
C  	  2.86398 	  4.84780 	  0.00129
C  	 -5.63252 	  0.05890 	 -0.00081
C  	  5.64108 	 -0.05760 	 -0.00101
C  	 -2.86862 	 -4.84700 	  0.00069
C  	  2.76318 	 -4.90640 	  0.00079
H  	 -1.47972 	  2.62220 	 -2.15761
H  	  1.53128 	  2.59150 	 -2.15751
H  	 -3.01172 	  0.03060 	  2.15719
H  	  3.02118 	 -0.03120 	 -2.15971
H  	 -1.53332 	 -2.59060 	  2.15779
H  	  1.47618 	 -2.62210 	  2.15779
H  	 -1.47922 	  2.62160 	  2.15759
H  	  1.52958 	  2.59030 	  2.15789
H  	 -3.01092 	  0.03190 	 -2.15801
H  	  3.02158 	 -0.03100 	  2.15829
H  	 -1.53382 	 -2.59130 	 -2.15751
H  	  1.47688 	 -2.62290 	 -2.15751
H  	 -2.69132 	  4.77120 	 -2.14821
H  	  2.78638 	  4.71530 	 -2.14731
H  	 -5.47862 	  0.05670 	  2.14779
H  	  5.48668 	 -0.05610 	 -2.14951
H  	 -2.78972 	 -4.71380 	  2.14919
H  	  2.68708 	 -4.77140 	  2.14929
H  	 -2.69112 	  4.77050 	  2.14889
H  	  2.78448 	  4.71430 	  2.14979
H  	 -5.47782 	  0.05800 	 -2.14931
H  	  5.48698 	 -0.05580 	  2.14759
H  	 -2.79032 	 -4.71450 	 -2.14791
H  	  2.68768 	 -4.77240 	 -2.14781
H  	 -3.30042 	  5.85140 	  0.00049
H  	  3.41648 	  5.78280 	  0.00169
H  	 -6.71862 	  0.07040 	 -0.00111
H  	  6.72708 	 -0.06850 	 -0.00101
H  	 -3.42172 	 -5.78170 	  0.00089
H  	  3.29618 	 -5.85260 	  0.00099
