42
generated via python
C 0.00000 0.70410 0.00010
C 0.00010 -0.70410 0.00020
C 2.45180 0.70430 -0.00030
C 2.45180 -0.70430 -0.00060
C -2.45190 0.70430 0.00020
C -2.45180 -0.70440 0.00070
C -1.22590 1.39100 0.00010
C -1.22590 -1.39100 0.00080
C 1.22580 1.39100 -0.00020
C 1.22580 -1.39100 -0.00040
C 3.67730 1.39240 0.00000
C 3.67720 -1.39230 -0.00100
C -3.67720 1.39230 -0.00040
C -3.67720 -1.39240 0.00090
C 4.90280 0.70580 0.00000
C 4.90280 -0.70580 -0.00070
C -4.90280 0.70580 -0.00030
C -4.90280 -0.70590 0.00040
C 6.12810 1.39290 0.00110
C 6.12810 -1.39290 -0.00120
C -6.12810 1.39290 -0.00100
C -6.12810 -1.39290 0.00060
C 7.33630 0.69560 0.00150
C 7.33640 -0.69570 -0.00020
C -7.33640 0.69570 -0.00070
C -7.33640 -0.69550 0.00000
H -1.22570 2.48120 -0.00020
H -1.22570 -2.48120 0.00110
H 1.22560 2.48110 -0.00010
H 1.22570 -2.48120 -0.00040
H 3.67700 2.48250 0.00050
H 3.67690 -2.48240 -0.00140
H -3.67690 2.48250 -0.00080
H -3.67690 -2.48250 0.00150
H 6.15180 2.48080 0.00190
H 6.15160 -2.48070 -0.00200
H -6.15160 2.48080 -0.00150
H -6.15170 -2.48080 0.00130
H 8.27650 1.23930 0.00260
H 8.27650 -1.23930 -0.00030
H -8.27660 1.23940 -0.00110
H -8.27660 -1.23920 0.00020
