30

O  	  1.15100 	  2.40460 	 -0.00590
O  	 -1.30410 	 -2.38240 	 -0.02630
N  	  1.51530 	 -1.09090 	  0.00190
N  	 -1.43260 	  1.09110 	 -0.01080
C  	  0.73300 	  0.03270 	 -0.00120
C  	  2.90680 	  0.65280 	  0.00070
C  	  2.84700 	 -0.74240 	  0.00320
C  	 -0.71860 	 -0.00400 	 -0.00440
C  	  1.56550 	  1.12820 	 -0.00190
C  	 -2.97420 	 -0.67090 	  0.00430
C  	 -1.63270 	 -1.22380 	 -0.00350
C  	 -2.78790 	  0.70710 	 -0.00340
C  	  4.16970 	  1.27760 	  0.00130
C  	  3.99180 	 -1.54730 	  0.00610
C  	 -4.21060 	 -1.27990 	  0.01170
C  	 -3.89020 	  1.54340 	 -0.00190
C  	  5.32340 	  0.48510 	  0.00400
C  	  5.23350 	 -0.90530 	  0.00660
C  	 -5.32200 	 -0.43760 	  0.01320
C  	 -5.16420 	  0.96170 	  0.00630
H  	  1.16990 	 -2.04090 	  0.00290
H  	  4.25710 	  2.36030 	 -0.00050
H  	  3.92280 	 -2.62990 	  0.00800
H  	 -4.32160 	 -2.35730 	  0.01600
H  	 -3.77840 	  2.62240 	 -0.00720
H  	  6.30010 	  0.96150 	  0.00440
H  	  6.14250 	 -1.50140 	  0.00880
H  	 -6.32200 	 -0.86310 	  0.01910
H  	 -6.04510 	  1.59850 	  0.00740
H  	  1.91420 	  3.00820 	 -0.00610
