72

C  	 -2.62690 	  2.79810 	 -0.00000
C  	 -1.40820 	  3.57020 	 -0.00010
C  	 -3.73680 	 -0.87590 	  0.00030
C  	  2.38780 	  3.00470 	 -0.00010
C  	 -1.10980 	 -3.67390 	  0.00010
C  	  3.79610 	 -0.56560 	 -0.00040
C  	 -3.79610 	  0.56560 	  0.00020
C  	  1.10990 	  3.67400 	 -0.00010
C  	 -2.38790 	 -3.00470 	  0.00020
C  	  3.73670 	  0.87580 	 -0.00020
C  	  1.40820 	 -3.57030 	 -0.00030
C  	  2.62690 	 -2.79810 	 -0.00040
C  	 -3.87540 	  3.43590 	 -0.00030
C  	 -1.45180 	  4.97150 	 -0.00010
C  	 -4.91330 	 -1.63820 	  0.00020
C  	  3.57960 	  3.74300 	  0.00030
C  	 -1.03790 	 -5.07410 	  0.00010
C  	  5.03140 	 -1.22850 	 -0.00010
C  	 -5.03140 	  1.22850 	 -0.00020
C  	  1.03800 	  5.07410 	  0.00020
C  	 -3.57960 	 -3.74300 	  0.00030
C  	  4.91330 	  1.63820 	  0.00010
C  	  1.45180 	 -4.97150 	 -0.00010
C  	  3.87530 	 -3.43590 	 -0.00020
C  	 -2.64260 	  1.38400 	  0.00050
C  	 -0.12280 	  2.98050 	 -0.00040
C  	 -2.51990 	 -1.59660 	  0.00040
C  	  2.51990 	  1.59670 	 -0.00020
C  	  0.12280 	 -2.98060 	 -0.00010
C  	  2.64260 	 -1.38400 	 -0.00060
C  	 -5.05630 	  2.64800 	 -0.00040
C  	 -0.23490 	  5.70290 	  0.00010
C  	 -4.82140 	 -3.05490 	  0.00030
C  	  4.82140 	  3.05480 	  0.00030
C  	  0.23500 	 -5.70280 	  0.00010
C  	  5.05640 	 -2.64810 	 -0.00010
C  	 -3.89830 	  4.84080 	 -0.00050
C  	 -2.71230 	  5.59230 	 -0.00030
C  	 -6.14150 	 -0.95560 	 -0.00010
C  	  3.48690 	  5.14500 	  0.00060
C  	 -2.24320 	 -5.79640 	  0.00020
C  	  6.19930 	 -0.44720 	  0.00020
C  	 -6.19930 	  0.44720 	 -0.00030
C  	  2.24310 	  5.79650 	  0.00050
C  	 -3.48700 	 -5.14500 	  0.00040
C  	  6.14150 	  0.95560 	  0.00030
C  	  2.71230 	 -5.59230 	 -0.00010
C  	  3.89830 	 -4.84080 	 -0.00010
H  	 -1.68490 	  0.88250 	  0.00110
H  	 -0.07830 	  1.90040 	 -0.00090
H  	 -1.60660 	 -1.01800 	  0.00040
H  	  1.60670 	  1.01810 	 -0.00030
H  	  0.07820 	 -1.90040 	 -0.00010
H  	  1.68490 	 -0.88240 	 -0.00100
H  	 -6.02280 	  3.15420 	 -0.00070
H  	 -0.27980 	  6.79300 	  0.00030
H  	 -5.74290 	 -3.63880 	  0.00030
H  	  5.74290 	  3.63880 	  0.00060
H  	  0.27990 	 -6.79290 	  0.00010
H  	  6.02280 	 -3.15420 	  0.00010
H  	 -4.84860 	  5.37180 	 -0.00080
H  	 -2.78650 	  6.67830 	 -0.00040
H  	 -7.07640 	 -1.51320 	 -0.00030
H  	  4.39040 	  5.75230 	  0.00090
H  	 -2.22780 	 -6.88490 	  0.00020
H  	  7.17690 	 -0.92600 	  0.00040
H  	 -7.17690 	  0.92600 	 -0.00060
H  	  2.22780 	  6.88490 	  0.00070
H  	 -4.39040 	 -5.75240 	  0.00040
H  	  7.07650 	  1.51310 	  0.00060
H  	  2.78650 	 -6.67830 	 -0.00010
H  	  4.84860 	 -5.37180 	 -0.00010
