32
generated via python
Cl -1.09470 -2.36940 0.87330
O 1.77580 -1.87760 1.01840
N 0.69090 -1.46180 -1.41600
C 0.73680 -0.29110 -0.52200
C 1.59470 0.77710 -1.24890
C 1.97690 1.95690 -0.34930
C 2.75230 1.47530 0.87320
C 1.54290 -0.70420 0.72520
C 1.98120 0.41870 1.64750
C -0.69180 0.12440 -0.15000
C -1.57070 -0.75780 0.47900
C -1.10600 1.42050 -0.45740
C -0.04880 -1.15350 -2.62970
C -2.86340 -0.34390 0.80020
C -2.39870 1.83440 -0.13610
C -3.27740 0.95210 0.49250
H 1.10310 1.18730 -2.13820
H 2.53290 0.32500 -1.60490
H 1.13590 2.55900 -0.00480
H 2.61590 2.64040 -0.92220
H 2.98170 2.32380 1.52760
H 3.71250 1.05670 0.54560
H 1.09190 0.84650 2.12220
H 2.61380 0.00320 2.43930
H 1.63570 -1.75590 -1.66290
H -0.51920 2.13110 -1.02220
H -0.12440 -2.07850 -3.21360
H 0.45800 -0.43730 -3.28190
H -1.08100 -0.83280 -2.46430
H -3.56080 -1.01960 1.28900
H -2.72910 2.83660 -0.39340
H -4.28560 1.27300 0.73810
