51
generated via python
O -0.29540 3.43200 0.33030
O -2.33550 2.48940 0.86550
N -0.91580 -1.92940 1.19050
N 1.50170 1.55120 -0.76720
C 0.22240 -0.12210 0.37950
C 0.22770 0.84700 -0.84620
C -1.14050 -0.79150 0.33920
C -1.80390 -0.82550 -1.02910
C -1.06020 1.67050 -1.00540
C -2.24730 0.67400 -1.29150
C 0.24290 -0.03500 -2.19800
C -0.77310 -1.18340 -2.10130
C 0.19350 0.11300 1.90870
C -2.98730 -1.80570 -0.95490
C 1.65160 -0.59820 0.17550
C -0.42510 -1.25560 2.42480
C -2.14050 -2.70910 1.30960
C -2.66950 -3.05510 -0.10210
C 2.37060 0.49360 -0.37970
C -1.33040 2.55880 0.17110
C 2.30260 -1.77170 0.51000
C 3.74490 0.45710 -0.52060
C 3.68800 -1.82770 0.33100
C 4.40270 -0.72170 -0.16410
C -0.42410 4.34520 1.42460
H -1.86760 -0.16870 0.89750
H -0.98660 2.34760 -1.86840
H -3.13950 0.91740 -0.70390
H -2.55160 0.77160 -2.34260
H 1.22480 -0.45420 -2.44900
H 0.00120 0.61060 -3.05420
H -1.24620 -1.33400 -3.07870
H -0.26070 -2.11970 -1.84890
H -0.47120 0.93910 2.18520
H 1.16130 0.30570 2.38630
H -3.30190 -2.11100 -1.95950
H -3.85130 -1.30510 -0.49870
H 0.33520 -1.87220 2.91370
H -1.22590 -1.04250 3.14280
H 1.60350 2.44020 -0.29340
H -2.91700 -2.16310 1.86050
H -1.93550 -3.63550 1.85690
H -3.57890 -3.65950 -0.00430
H -1.93240 -3.67520 -0.62780
H 1.77760 -2.62200 0.92830
H 4.29620 1.29720 -0.92790
H 4.22620 -2.73440 0.59590
H 5.48110 -0.79180 -0.28030
H -1.30870 4.97500 1.29060
H 0.46290 4.98390 1.44010
H -0.47860 3.79690 2.36990
