13
generated via python
O  	  1.45730 	 -1.04380 	  0.26820
O  	  1.24920 	  1.11650 	 -0.40470
N  	 -1.41050 	  1.15070 	  0.18210
C  	 -0.70850 	 -0.11360 	  0.39370
C  	 -1.33450 	 -1.20000 	 -0.47020
C  	  0.74700 	  0.09030 	  0.03080
H  	 -0.76660 	 -0.37370 	  1.45580
H  	 -0.85800 	 -2.16950 	 -0.28780
H  	 -2.40230 	 -1.31270 	 -0.25210
H  	 -1.22480 	 -0.97970 	 -1.53840
H  	 -2.39160 	  1.04200 	  0.43760
H  	 -1.40710 	  1.38750 	 -0.80990
H  	  2.40620 	 -0.93410 	  0.04470
