22
generated via python
O 1.10330 -1.28600 1.26730
O 1.55370 -1.05090 -0.94260
N 1.73130 1.75450 0.01200
C -1.80210 0.19050 -0.40870
C -0.56430 1.07930 -0.64940
C 0.62490 0.84080 0.29480
C -2.34230 0.31830 1.01600
C -1.45090 -1.27190 -0.69840
C 1.14640 -0.57470 0.10900
H -2.58240 0.50840 -1.11140
H -0.24450 0.95730 -1.69370
H -0.87980 2.12730 -0.55310
H 0.32670 0.98800 1.33750
H -1.64880 -0.08030 1.76290
H -2.54470 1.36610 1.26100
H -3.28280 -0.23470 1.11550
H -0.85900 -1.38710 -1.61090
H -0.99140 -1.79630 0.13980
H -2.38660 -1.81670 -0.88230
H 1.41540 2.71590 0.13720
H 1.99860 1.67850 -0.96940
H 1.43470 -2.20130 1.14600
