26
generated via python
S  	  2.08820 	  2.13070 	  0.01260
S  	 -0.64610 	 -1.28330 	  0.29390
O  	  5.85150 	 -0.50370 	 -0.05120
O  	  4.18880 	 -1.94710 	 -0.64140
O  	 -5.84260 	 -1.20330 	 -0.06100
N  	  2.29290 	 -0.43400 	  0.38750
N  	 -0.87150 	  1.26540 	 -0.03060
C  	  3.65440 	  0.12410 	  0.47370
C  	  3.72560 	  1.44120 	 -0.27760
C  	  1.43360 	  0.51990 	  0.21390
C  	 -0.00490 	  0.29540 	  0.14540
C  	 -2.23690 	 -0.64380 	  0.11030
C  	 -2.15630 	  0.74260 	 -0.05220
C  	  4.55710 	 -0.89720 	 -0.13590
C  	 -3.46740 	 -1.32010 	  0.11050
C  	 -3.35140 	  1.47560 	 -0.21980
C  	 -4.63490 	 -0.57110 	 -0.05740
C  	 -4.58000 	  0.80870 	 -0.22060
H  	  3.92100 	  0.23500 	  1.53250
H  	  4.51310 	  2.09600 	  0.10570
H  	  3.87540 	  1.30090 	 -1.35340
H  	 -3.50600 	 -2.39810 	  0.23850
H  	 -3.31990 	  2.55390 	 -0.34810
H  	 -5.49520 	  1.38080 	 -0.35040
H  	  6.46150 	 -1.16270 	 -0.44630
H  	 -5.69990 	 -2.15730 	  0.06380
