492
generated via python
S 28.89240 27.75790 0.00000
S 9.08590 23.48160 0.00000
Na 28.21320 29.35130 0.00000
Na 9.01980 21.75080 0.00000
O 29.75320 -1.98610 0.00000
O 29.04440 0.65270 0.00000
O 27.30600 -3.20130 0.00000
O 31.83750 0.84210 0.00000
O 29.01270 -5.42050 0.00000
O 25.06990 -9.04980 0.00000
O 26.47700 -6.86060 0.00000
O 25.43930 -12.00600 0.00000
O 31.23870 3.69610 0.00000
O 22.53840 -11.79860 0.00000
O 21.76540 -14.58450 0.00000
O 29.31500 2.73780 0.00000
O 19.25970 -13.33600 0.00000
O 27.97570 -9.14480 0.00000
O 18.63840 -16.01980 0.00000
O 33.35370 5.54810 0.00000
O 34.10050 3.84600 0.00000
O 17.20310 -19.14690 0.00000
O 15.95460 -16.64110 0.00000
O 14.43790 -20.07290 0.00000
O 32.79410 8.17950 0.00000
O 15.79260 -22.79160 0.00000
O 30.64370 5.37980 0.00000
O 35.18570 6.36840 0.00000
O 35.43420 8.35290 0.00000
O 20.29260 27.18640 0.00000
O 18.22160 25.30260 0.00000
O 21.93670 24.77800 0.00000
O 16.80880 27.64130 0.00000
O 15.92390 -24.88550 0.00000
O 24.18370 26.82200 0.00000
O 14.23740 26.71740 0.00000
O 13.28220 -24.73910 0.00000
O 22.30350 28.00240 0.00000
O 32.12110 9.77540 0.00000
O 14.89420 25.04050 0.00000
O 25.79530 24.35600 0.00000
O 15.89210 29.30240 0.00000
O 31.66580 13.38420 0.00000
O 29.95150 21.38390 0.00000
O 13.84640 29.40430 0.00000
O 31.12380 23.80520 0.00000
O 32.51650 20.57250 0.00000
O 28.45690 24.65680 0.00000
O 31.30330 18.04940 0.00000
O 31.44810 11.37140 0.00000
O 32.84740 15.80110 0.00000
O 26.16260 27.51860 0.00000
O 26.74130 24.93690 0.00000
O 34.25380 12.56310 0.00000
O 29.69310 19.36880 0.00000
O 12.68250 25.94420 0.00000
O 29.69190 27.15730 0.00000
O 31.35940 25.89460 0.00000
O 30.08770 14.62480 0.00000
O 34.19670 19.30850 0.00000
O 33.96890 17.22920 0.00000
O 30.32840 16.61020 0.00000
O 9.61860 24.32790 0.00000
O 28.09280 28.35860 0.00000
O 29.49300 28.55750 0.00000
O 28.29170 26.95840 0.00000
O 7.62000 24.40420 0.00000
O 8.55320 22.63530 0.00000
O 9.93220 22.94890 0.00000
O 8.23960 24.01430 0.00000
O 6.75300 27.90400 0.00000
O 2.28930 28.94110 0.00000
C 29.72810 -0.98640 0.00000
C 30.00100 1.06480 0.00000
C 28.00700 -2.43100 0.00000
C 28.98720 -2.62900 0.00000
C 30.83140 0.43600 0.00000
C 28.65120 -4.39750 0.00000
C 28.93090 -0.38270 0.00000
C 27.63020 -4.19120 0.00000
C 30.69410 -0.59650 0.00000
C 29.33430 -3.61110 0.00000
C 31.98060 1.91760 0.00000
C 30.11920 2.14340 0.00000
C 31.11560 2.57270 0.00000
C 27.55070 -1.54120 0.00000
C 27.96190 -0.62960 0.00000
C 24.85000 -10.18320 0.00000
C 27.23770 -6.02470 0.00000
C 26.16430 -8.68190 0.00000
C 26.89990 -4.99360 0.00000
C 28.30120 -6.23960 0.00000
C 24.38070 -12.33470 0.00000
C 25.67550 -10.92300 0.00000
C 26.82880 -7.93460 0.00000
C 23.58820 -11.62460 0.00000
C 23.79930 -10.53640 0.00000
C 22.43260 -13.72890 0.00000
C 27.02420 -9.45240 0.00000
C 33.02860 2.34070 0.00000
C 22.01740 -12.72650 0.00000
C 26.77820 -10.58050 0.00000
C 28.67770 -7.30520 0.00000
C 27.93660 -8.15840 0.00000
C 30.52540 -1.59010 0.00000
C 29.20380 1.66850 0.00000
C 24.32250 -13.39730 0.00000
C 27.02680 -2.23300 0.00000
C 20.69200 -14.42640 0.00000
C 29.63140 -4.59550 0.00000
C 23.45710 -14.01660 0.00000
C 32.27660 4.14320 0.00000
C 33.17760 3.46100 0.00000
C 20.29340 -13.46400 0.00000
C 20.94060 -12.59320 0.00000
C 32.77780 1.31400 0.00000
C 24.10530 -9.51590 0.00000
C 25.84940 -7.73280 0.00000
C 20.05160 -15.24780 0.00000
C 32.39700 5.13600 0.00000
C 25.12550 -13.00210 0.00000
C 19.02110 -15.09600 0.00000
C 22.81530 -14.65280 0.00000
C 18.63840 -14.17210 0.00000
C 21.07470 -15.35020 0.00000
C 16.08260 -17.67490 0.00000
C 15.34500 -19.39880 0.00000
C 31.56660 5.76480 0.00000
C 17.04490 -18.07350 0.00000
C 16.34740 -19.81400 0.00000
C 17.71450 -16.40250 0.00000
C 15.21170 -18.32200 0.00000
C 17.86640 -17.43300 0.00000
C 33.46710 6.58350 0.00000
C 14.57680 -21.19450 0.00000
C 31.70400 6.79730 0.00000
C 16.79060 -16.01980 0.00000
C 32.66990 7.18720 0.00000
C 15.62090 -21.62700 0.00000
C 16.51220 -20.93210 0.00000
C 17.71450 -13.78940 0.00000
C 34.38850 6.97210 0.00000
C 15.15870 -17.29220 0.00000
C 13.63190 -21.89660 0.00000
C 14.42120 -19.01610 0.00000
C 16.40800 -15.09600 0.00000
C 16.79060 -14.17210 0.00000
C 34.51270 7.96430 0.00000
C 33.71550 8.56800 0.00000
C 13.77660 -23.06490 0.00000
C 14.86420 -23.51540 0.00000
C 13.65290 -20.81180 0.00000
C 14.99850 -24.50640 0.00000
C 33.83980 9.56030 0.00000
C 21.04110 25.46720 0.00000
C 19.18140 25.70730 0.00000
C 21.16750 26.54480 0.00000
C 19.30280 26.74180 0.00000
C 17.39610 25.93780 0.00000
C 20.04130 25.04560 0.00000
C 17.51270 26.93100 0.00000
C 18.46280 27.35780 0.00000
C 14.20750 -25.11820 0.00000
C 22.19850 27.00790 0.00000
C 33.04250 10.16400 0.00000
C 23.10980 26.33960 0.00000
C 22.97810 25.21710 0.00000
C 16.54690 25.40970 0.00000
C 15.81460 27.53400 0.00000
C 15.27870 26.68970 0.00000
C 15.60460 25.74430 0.00000
C 20.92450 24.47400 0.00000
C 23.91110 24.49920 0.00000
C 14.34190 -26.10910 0.00000
C 33.16680 11.15620 0.00000
C 17.27950 24.94460 0.00000
C 25.13300 26.12580 0.00000
C 24.99580 24.95660 0.00000
C 15.34650 28.46440 0.00000
C 13.74790 27.63680 0.00000
C 14.30610 28.51620 0.00000
C 13.55090 -26.72090 0.00000
C 32.36950 11.75990 0.00000
C 26.04990 26.52500 0.00000
C 32.49380 12.75220 0.00000
C 12.74860 27.67500 0.00000
C 13.68520 -27.71190 0.00000
C 26.85400 25.93060 0.00000
C 30.75330 20.78630 0.00000
C 30.06810 22.37700 0.00000
C 31.67170 21.18200 0.00000
C 30.98650 22.77270 0.00000
C 33.45200 13.16060 0.00000
C 31.80710 14.41620 0.00000
C 29.33680 24.02190 0.00000
C 31.44640 19.12490 0.00000
C 30.29340 24.43410 0.00000
C 32.72700 14.80830 0.00000
C 32.40300 19.53710 0.00000
C 30.61600 19.75380 0.00000
C 28.57500 25.73530 0.00000
C 31.78830 22.17510 0.00000
C 27.77090 26.32980 0.00000
C 29.22330 22.98650 0.00000
C 32.16830 17.39440 0.00000
C 12.62550 -26.34180 0.00000
C 32.04790 16.40170 0.00000
C 12.21590 26.82870 0.00000
C 33.56940 14.19560 0.00000
C 30.43650 25.50960 0.00000
C 29.57150 26.16460 0.00000
C 31.00760 15.01690 0.00000
C 33.28290 18.90220 0.00000
C 33.16470 17.82370 0.00000
C 31.12800 16.00960 0.00000
C 12.28200 28.55950 0.00000
C 12.89420 -28.32370 0.00000
C 11.21660 26.86680 0.00000
C 14.61060 -28.09100 0.00000
C 10.68390 26.02050 0.00000
C 10.75000 27.75130 0.00000
C 13.02860 -29.31460 0.00000
C 9.68470 26.05870 0.00000
C 9.15200 25.21240 0.00000
C 12.23760 -29.92640 0.00000
C 8.15270 25.25060 0.00000
C 7.68610 26.13500 0.00000
C 6.68680 26.17320 0.00000
C 8.21880 26.98130 0.00000
C 6.22030 27.05770 0.00000
C 5.22100 27.09580 0.00000
C 4.75440 27.98030 0.00000
C 4.68830 26.24950 0.00000
C 5.28710 28.82660 0.00000
C 3.75510 28.01850 0.00000
C 3.28860 28.90290 0.00000
H 29.80730 -2.85280 0.00000
H 31.50310 -0.08490 0.00000
H 28.28920 0.17470 0.00000
H 26.79900 -4.01330 0.00000
H 30.82430 -1.20270 0.00000
H 31.31360 -0.57190 0.00000
H 29.72590 -4.09180 0.00000
H 29.87490 -3.30750 0.00000
H 29.55120 1.89480 0.00000
H 30.43210 3.07790 0.00000
H 27.05640 -1.16690 0.00000
H 27.07580 -1.93970 0.00000
H 27.94630 -0.00980 0.00000
H 27.35420 -0.50680 0.00000
H 26.40650 -5.84680 0.00000
H 26.51960 -4.50400 0.00000
H 26.35240 -5.28460 0.00000
H 29.13620 -6.39820 0.00000
H 26.30200 -11.49750 0.00000
H 27.09810 -8.74080 0.00000
H 22.99540 -11.01540 0.00000
H 23.70520 -9.92360 0.00000
H 23.17940 -10.52420 0.00000
H 27.15280 -8.84590 0.00000
H 33.15890 1.73450 0.00000
H 33.64810 2.36530 0.00000
H 21.63390 -11.96790 0.00000
H 26.85800 -11.19530 0.00000
H 27.39760 -10.60700 0.00000
H 29.06930 -7.78590 0.00000
H 29.21830 -7.00160 0.00000
H 27.71160 -8.73610 0.00000
H 28.46730 -8.47890 0.00000
H 30.15110 -2.08440 0.00000
H 31.01960 -1.96440 0.00000
H 30.89960 -1.09580 0.00000
H 29.57810 2.16280 0.00000
H 28.70950 2.04280 0.00000
H 28.82950 1.17430 0.00000
H 24.56150 -13.96940 0.00000
H 24.93350 -13.29210 0.00000
H 27.14960 -1.62520 0.00000
H 26.41910 -2.11020 0.00000
H 26.90410 -2.84070 0.00000
H 29.50860 -5.20320 0.00000
H 30.23910 -4.71830 0.00000
H 29.75420 -3.98780 0.00000
H 23.16040 -14.56100 0.00000
H 23.92140 -14.42740 0.00000
H 31.59610 4.65250 0.00000
H 33.25580 4.07600 0.00000
H 19.95910 -12.68250 0.00000
H 21.12090 -12.00000 0.00000
H 20.38700 -12.31400 0.00000
H 32.40350 0.81970 0.00000
H 33.27210 0.93970 0.00000
H 33.15210 1.80820 0.00000
H 24.51900 -9.05420 0.00000
H 23.64350 -9.10210 0.00000
H 23.69150 -9.97760 0.00000
H 26.43780 -7.53750 0.00000
H 25.65410 -7.14440 0.00000
H 25.26090 -7.92810 0.00000
H 19.85760 -15.83670 0.00000
H 20.59860 -15.53970 0.00000
H 33.07760 4.62680 0.00000
H 24.71170 -13.46380 0.00000
H 25.58720 -13.41580 0.00000
H 25.53920 -12.54030 0.00000
H 19.44040 -15.83530 0.00000
H 29.38490 3.35390 0.00000
H 22.24240 -14.89000 0.00000
H 23.05250 -15.22560 0.00000
H 23.38810 -14.41550 0.00000
H 18.41210 -13.35280 0.00000
H 20.50190 -15.58750 0.00000
H 21.31200 -15.92300 0.00000
H 21.64750 -15.11300 0.00000
H 31.07450 6.14190 0.00000
H 17.83390 -18.38970 0.00000
H 17.13650 -20.13020 0.00000
H 18.45390 -16.82180 0.00000
H 14.93250 -17.76840 0.00000
H 14.61850 -18.50240 0.00000
H 28.43590 -9.56030 0.00000
H 18.15830 -17.98000 0.00000
H 18.45530 -17.23900 0.00000
H 34.14870 6.07560 0.00000
H 31.57370 7.40350 0.00000
H 31.08450 6.77270 0.00000
H 15.97130 -15.79350 0.00000
H 31.99620 7.70560 0.00000
H 16.40990 -21.94320 0.00000
H 16.80410 -21.47910 0.00000
H 17.10110 -20.73810 0.00000
H 18.09200 -13.29750 0.00000
H 17.33710 -13.29750 0.00000
H 34.59340 3.46980 0.00000
H 34.31150 6.35690 0.00000
H 15.39600 -16.71940 0.00000
H 14.58590 -17.05490 0.00000
H 14.92140 -17.86500 0.00000
H 13.35270 -21.34310 0.00000
H 13.03870 -22.07700 0.00000
H 14.65840 -18.44330 0.00000
H 13.84840 -18.77880 0.00000
H 14.18390 -19.58890 0.00000
H 15.78800 -15.09600 0.00000
H 16.35220 -13.73370 0.00000
H 35.00700 7.59000 0.00000
H 33.22130 8.94230 0.00000
H 13.15730 -23.03470 0.00000
H 13.64080 -23.66990 0.00000
H 15.65130 -23.83620 0.00000
H 13.89020 -20.23900 0.00000
H 13.08010 -20.57450 0.00000
H 13.41570 -21.38460 0.00000
H 30.15090 5.75600 0.00000
H 15.08180 -25.12080 0.00000
H 34.43220 9.37760 0.00000
H 34.12250 10.11200 0.00000
H 35.75700 6.60930 0.00000
H 19.07260 24.86430 0.00000
H 21.25680 27.39010 0.00000
H 19.39210 27.58710 0.00000
H 19.58470 24.62620 0.00000
H 20.37640 24.52400 0.00000
H 17.66810 27.76660 0.00000
H 18.90960 27.78760 0.00000
H 18.11580 27.87150 0.00000
H 35.51120 8.96810 0.00000
H 13.71710 -25.49750 0.00000
H 22.76550 27.25870 0.00000
H 32.96550 9.54880 0.00000
H 23.19920 27.18490 0.00000
H 22.86930 24.37410 0.00000
H 16.21460 24.88620 0.00000
H 16.98330 24.96920 0.00000
H 16.26350 26.81220 0.00000
H 16.12290 26.59060 0.00000
H 15.00080 25.88510 0.00000
H 20.30870 24.54630 0.00000
H 20.85220 23.85820 0.00000
H 21.54030 24.40170 0.00000
H 23.45450 24.07980 0.00000
H 24.24620 23.97760 0.00000
H 14.63030 -26.65800 0.00000
H 14.93240 -25.92040 0.00000
H 33.75920 10.97360 0.00000
H 33.44950 11.70800 0.00000
H 16.66380 25.01690 0.00000
H 17.20730 24.32880 0.00000
H 17.89530 24.87230 0.00000
H 16.00720 -25.49990 0.00000
H 25.81560 25.61920 0.00000
H 25.56570 25.20080 0.00000
H 15.96550 28.43000 0.00000
H 13.29650 26.91660 0.00000
H 13.68670 28.54350 0.00000
H 13.06040 -27.10030 0.00000
H 31.87530 12.13420 0.00000
H 25.55130 26.89360 0.00000
H 12.79170 -25.11840 0.00000
H 21.80210 28.36710 0.00000
H 31.62680 10.14970 0.00000
H 33.17240 12.24040 0.00000
H 13.07880 28.19970 0.00000
H 14.17560 -27.33250 0.00000
H 26.28560 25.68310 0.00000
H 29.97010 20.45600 0.00000
H 29.29000 22.03470 0.00000
H 32.44980 21.52430 0.00000
H 31.76970 23.10300 0.00000
H 15.05190 24.44090 0.00000
H 34.02090 13.40700 0.00000
H 28.56010 23.67660 0.00000
H 30.66190 18.79770 0.00000
H 32.48280 13.90050 0.00000
H 31.07790 24.76130 0.00000
H 33.50640 15.14760 0.00000
H 33.17970 19.88240 0.00000
H 30.53780 19.13870 0.00000
H 28.00710 25.48670 0.00000
H 32.38220 21.99700 0.00000
H 32.06680 22.72910 0.00000
H 28.22040 26.75670 0.00000
H 27.42850 26.84660 0.00000
H 28.62770 23.15850 0.00000
H 28.95200 22.42900 0.00000
H 31.38570 17.06260 0.00000
H 32.82980 16.73500 0.00000
H 11.88560 26.30400 0.00000
H 12.86060 -25.76810 0.00000
H 12.05180 -26.10680 0.00000
H 12.39050 -26.91550 0.00000
H 34.16440 14.02130 0.00000
H 33.84290 14.75200 0.00000
H 25.72070 23.74050 0.00000
H 30.92860 25.13240 0.00000
H 29.07510 26.53600 0.00000
H 15.61130 29.85520 0.00000
H 30.93290 14.40140 0.00000
H 33.78360 18.53660 0.00000
H 33.09370 17.20780 0.00000
H 30.55760 15.76650 0.00000
H 12.83040 28.84880 0.00000
H 11.99270 29.10790 0.00000
H 11.73360 28.27020 0.00000
H 14.18070 29.92640 0.00000
H 30.95380 11.74570 0.00000
H 11.54690 27.39160 0.00000
H 12.60580 -27.77480 0.00000
H 12.30360 -28.51240 0.00000
H 14.37550 -28.66470 0.00000
H 15.18430 -28.32600 0.00000
H 14.84560 -27.51730 0.00000
H 25.66410 27.88720 0.00000
H 27.23990 24.56840 0.00000
H 10.55310 25.41450 0.00000
H 11.25800 25.78640 0.00000
H 34.82320 12.80840 0.00000
H 29.20020 19.74500 0.00000
H 12.35220 25.41950 0.00000
H 11.29840 28.04060 0.00000
H 10.46080 28.29970 0.00000
H 10.20170 27.46200 0.00000
H 31.43880 26.50950 0.00000
H 30.01300 14.00930 0.00000
H 34.26180 19.92500 0.00000
H 34.53730 17.47670 0.00000
H 29.75810 16.36710 0.00000
H 13.60230 -29.54970 0.00000
H 9.81560 26.66470 0.00000
H 9.11060 26.29280 0.00000
H 9.77150 25.18870 0.00000
H 11.66380 -29.69140 0.00000
H 12.32080 -30.54080 0.00000
H 8.44200 24.70220 0.00000
H 7.39680 26.68340 0.00000
H 6.09660 25.98350 0.00000
H 6.77110 25.55890 0.00000
H 7.00050 24.42790 0.00000
H 8.74350 26.65110 0.00000
H 8.54910 27.50610 0.00000
H 7.69410 27.31160 0.00000
H 5.93100 27.60600 0.00000
H 6.46370 28.45240 0.00000
H 4.06880 26.27320 0.00000
H 4.97760 25.70110 0.00000
H 5.81180 28.49640 0.00000
H 5.61740 29.35130 0.00000
H 4.76240 29.15690 0.00000
H 3.42490 27.49380 0.00000
H 3.87880 29.09260 0.00000
H 3.20430 29.51720 0.00000
H 2.00000 29.48950 0.00000
