12
generated via python
O  	 -0.52330 	  0.47090 	  0.00000
C  	  0.49540 	 -0.52010 	  0.00000
C  	  1.84690 	  0.16190 	  0.00000
C  	 -1.81910 	 -0.11270 	  0.00000
H  	  0.39950 	 -1.14960 	  0.89170
H  	  0.39940 	 -1.14960 	 -0.89170
H  	  2.65610 	 -0.57380 	  0.00000
H  	  1.95430 	  0.80510 	 -0.87960
H  	  1.95440 	  0.80520 	  0.87960
H  	 -1.96550 	 -0.72170 	 -0.89740
H  	 -2.55920 	  0.69200 	  0.00000
H  	 -1.96550 	 -0.72170 	  0.89720
