37
generated via python
O -1.89600 -1.18660 1.78370
O 0.81630 -0.36460 -1.87860
O -3.28560 1.64900 -1.62430
N -2.58680 0.38210 0.20810
N -1.21510 0.68480 -1.69390
C -0.21310 -0.27520 0.31290
C 0.39950 0.95140 1.01250
C 0.61730 -1.51950 0.66530
C -1.63740 -0.43650 0.84100
C -0.14170 -0.02730 -1.18480
C 0.30620 0.79900 2.52520
C -2.42310 0.96970 -1.06130
C 0.14260 -2.70750 -0.10340
C 1.79760 1.12410 0.59140
C -3.89710 0.50990 0.83480
C 0.90840 -3.38930 -0.96250
C 2.93990 1.27150 0.25060
C 4.33580 1.45130 -0.16600
C 5.03230 0.11380 -0.35040
H -0.15150 1.86070 0.73660
H 0.53790 -1.78520 1.72560
H 1.68650 -1.37960 0.46840
H -0.72350 0.75930 2.89080
H 0.85680 -0.06180 2.91580
H 0.75650 1.67720 3.00700
H -1.13550 0.98800 -2.66060
H -0.87420 -3.05490 0.05910
H -4.56160 -0.23790 0.39070
H -4.31240 1.50470 0.64900
H -3.83550 0.34050 1.91340
H 0.51130 -4.25300 -1.48490
H 1.93550 -3.10380 -1.16140
H 4.37260 2.01300 -1.10600
H 4.87390 2.04130 0.58410
H 4.53100 -0.49090 -1.11430
H 6.07040 0.26490 -0.66250
H 5.03690 -0.46160 0.58180
