17
generated via python
C 0.00000 0.00000 0.00000
C -1.34670 0.37270 0.63640
C 0.89610 1.24490 -0.06770
C -0.23590 -0.53850 -1.41830
C 0.68640 -1.07910 0.84960
H -1.21060 0.76130 1.65200
H -1.86160 1.14280 0.05100
H -2.00950 -0.49770 0.69850
H 1.86690 1.01000 -0.51840
H 1.08280 1.65320 0.93190
H 0.43180 2.03480 -0.66880
H -0.87370 -1.42940 -1.40260
H -0.72570 0.21090 -2.05010
H 0.70930 -0.81380 -1.89960
H 0.86840 -0.72340 1.86990
H 1.65240 -1.36660 0.41960
H 0.06930 -1.98220 0.91650
