48
generated via python
O 4.66130 -0.69330 -0.67650
O -5.51790 -0.84070 1.32440
C 1.43630 0.76930 0.24660
C 2.24000 -0.23440 -0.61100
C 0.04680 1.06050 -0.32630
C -0.75930 -0.28150 -0.40300
C 1.46450 -1.56440 -0.64820
C 3.60150 -0.22710 0.14820
C 2.40670 1.93130 0.44120
C 0.02290 -1.38000 -1.15890
C -2.16140 0.00460 -1.00540
C 3.80110 1.27320 0.49020
C -0.70980 2.11940 0.50050
C 2.46540 0.23870 -2.07780
C -2.13390 2.34030 -0.01810
C -2.84460 1.01640 -0.10230
C -3.05850 -1.21800 -1.25070
C 3.58960 -1.03220 1.38560
C -3.70960 -1.72920 0.02250
C -3.93190 0.75400 0.63860
C -4.48950 -0.61980 0.68840
C 3.58030 -1.68690 2.39170
H 1.27210 0.33340 1.24510
H 0.14720 1.46840 -1.33980
H -0.89430 -0.64750 0.62650
H 1.39870 -2.00630 0.35270
H 1.98580 -2.29730 -1.27560
H 2.19760 2.48410 1.36300
H 2.35280 2.64340 -0.38980
H 0.02870 -1.16140 -2.23270
H -0.48760 -2.34300 -1.04410
H -2.01380 0.47110 -1.99040
H 4.46620 1.76250 -0.23170
H 4.25610 1.41660 1.47780
H -0.17210 3.07430 0.47190
H -0.74880 1.80820 1.55270
H 3.04300 1.16660 -2.13540
H 3.01530 -0.51930 -2.64780
H 1.53190 0.41700 -2.61720
H -2.10720 2.80410 -1.01150
H -2.65640 3.03960 0.64500
H -2.51890 -2.02590 -1.75300
H -3.85590 -0.92020 -1.94700
H 4.44790 -1.60040 -0.95530
H -2.96720 -2.11260 0.73000
H -4.40240 -2.54050 -0.22580
H -4.38830 1.50010 1.27940
H 3.57120 -2.26780 3.28410
