26
generated via python
C  	 -0.60840 	 -0.42860 	  0.03870
C  	  0.63200 	  0.46770 	  0.02880
C  	 -1.92510 	  0.35340 	  0.03070
C  	  1.91620 	 -0.36460 	  0.01340
C  	 -3.16350 	 -0.54160 	 -0.03360
C  	  3.15660 	  0.52750 	 -0.03510
C  	 -4.44290 	  0.28100 	 -0.02640
C  	  4.43520 	 -0.29480 	 -0.01660
H  	 -0.58220 	 -1.07680 	  0.92330
H  	 -0.58140 	 -1.08830 	 -0.83770
H  	  0.62210 	  1.11780 	  0.91190
H  	  0.60440 	  1.11880 	 -0.85330
H  	 -1.93070 	  1.03540 	 -0.82870
H  	 -1.97370 	  0.97900 	  0.93060
H  	  1.91260 	 -1.03310 	 -0.85620
H  	  1.95220 	 -0.99840 	  0.90790
H  	 -3.16980 	 -1.22750 	  0.82140
H  	 -3.13200 	 -1.15420 	 -0.94190
H  	  3.15750 	  1.21090 	  0.82210
H  	  3.13690 	  1.14370 	 -0.94150
H  	 -4.51830 	  0.88150 	  0.88580
H  	 -4.48000 	  0.95640 	 -0.88710
H  	 -5.31630 	 -0.37700 	 -0.07290
H  	  5.30930 	  0.36280 	 -0.05300
H  	  4.48070 	 -0.96840 	 -0.87840
H  	  4.50110 	 -0.89740 	  0.89480
