18
generated via python
C  	  0.58570 	  0.69750 	  0.00000
C  	  0.58590 	 -0.69740 	  0.00030
C  	 -0.62240 	  1.39480 	 -0.00010
C  	 -0.62200 	 -1.39490 	  0.00010
C  	  1.86640 	  1.46590 	  0.00000
C  	  1.86670 	 -1.46560 	 -0.00020
C  	 -1.83030 	  0.69730 	 -0.00010
C  	 -1.83010 	 -0.69760 	 -0.00010
H  	 -0.64070 	  2.48150 	 -0.00020
H  	 -0.64020 	 -2.48160 	 -0.00010
H  	  2.45450 	  1.23560 	  0.89440
H  	  2.45550 	  1.23390 	 -0.89320
H  	  1.69070 	  2.54730 	 -0.00120
H  	  2.45640 	 -1.23310 	  0.89250
H  	  1.69110 	 -2.54700 	  0.00170
H  	  2.45410 	 -1.23560 	 -0.89510
H  	 -2.77110 	  1.24000 	 -0.00010
H  	 -2.77070 	 -1.24050 	 -0.00020
