46

C  	 -0.00000 	  0.70610 	 -0.00010
C  	 -0.00000 	 -0.70610 	 -0.00010
C  	  1.22330 	  1.41310 	 -0.00000
C  	  1.22340 	 -1.41320 	 -0.00010
C  	 -1.22330 	  1.41320 	 -0.00000
C  	 -1.22340 	 -1.41320 	 -0.00000
C  	  2.44860 	  0.70680 	 -0.00010
C  	  2.44870 	 -0.70680 	 -0.00020
C  	 -2.44860 	  0.70690 	 -0.00010
C  	 -2.44870 	 -0.70680 	 -0.00000
C  	  1.22280 	  2.82490 	  0.00020
C  	  1.22270 	 -2.82490 	  0.00010
C  	 -1.22270 	  2.82490 	 -0.00000
C  	 -1.22280 	 -2.82490 	  0.00010
C  	  3.67230 	  1.41300 	 -0.00010
C  	  3.67240 	 -1.41310 	 -0.00020
C  	 -3.67230 	  1.41310 	 -0.00010
C  	 -3.67240 	 -1.41310 	 -0.00000
C  	  0.00010 	  3.51280 	  0.00020
C  	 -0.00000 	 -3.51280 	  0.00020
C  	  2.44510 	  3.51020 	  0.00030
C  	  2.44510 	 -3.51020 	  0.00010
C  	 -2.44500 	  3.51020 	 -0.00000
C  	 -2.44510 	 -3.51020 	  0.00030
C  	  3.65440 	  2.81360 	  0.00020
C  	  3.65440 	 -2.81370 	 -0.00010
C  	 -3.65440 	  2.81370 	 -0.00010
C  	 -3.65450 	 -2.81360 	  0.00020
C  	  4.87710 	  0.69780 	 -0.00000
C  	  4.87700 	 -0.69780 	 -0.00030
C  	 -4.87710 	  0.69780 	 -0.00020
C  	 -4.87710 	 -0.69770 	 -0.00010
H  	  0.00010 	  4.60290 	  0.00040
H  	 -0.00000 	 -4.60280 	  0.00020
H  	  2.46940 	  4.59810 	  0.00050
H  	  2.46930 	 -4.59810 	  0.00020
H  	 -2.46930 	  4.59810 	 -0.00000
H  	 -2.46940 	 -4.59810 	  0.00040
H  	  4.58390 	  3.37930 	  0.00040
H  	  4.58380 	 -3.37940 	 -0.00000
H  	 -4.58380 	  3.37940 	 -0.00020
H  	 -4.58390 	 -3.37940 	  0.00030
H  	  5.83130 	  1.22070 	 -0.00000
H  	  5.83130 	 -1.22080 	 -0.00030
H  	 -5.83130 	  1.22080 	 -0.00020
H  	 -5.83130 	 -1.22060 	 -0.00010
