17
generated via python
C 0.00000 0.34780 -0.02280
C 1.26210 -0.51400 -0.00010
C -1.26210 -0.51400 -0.00010
C 2.51980 0.34010 0.01150
C -2.51990 0.34010 0.01150
H 0.00000 0.97830 -0.92020
H 0.00000 1.02010 0.84390
H 1.28000 -1.17100 -0.87750
H 1.25830 -1.15760 0.88740
H -1.27990 -1.17100 -0.87740
H -1.25820 -1.15760 0.88730
H 2.54840 0.98470 0.89580
H 2.57080 0.97520 -0.87880
H 3.41010 -0.29640 0.02640
H -2.54840 0.98480 0.89580
H -3.41010 -0.29640 0.02630
H -2.57090 0.97500 -0.87870
