26
generated via python
O 0.26740 2.03410 0.01970
O 3.81890 -0.16610 -0.00240
C -3.52090 0.01630 0.02310
C -2.21780 0.83630 0.00760
C -0.95400 -0.02840 -0.01480
C -3.54450 -0.89790 1.25050
C -3.70100 -0.81860 -1.24540
C 0.32630 0.80400 -0.00040
C 1.62870 0.11270 -0.00470
C 1.85440 -1.25810 -0.02070
C 2.81880 0.75350 0.00610
C 3.22370 -1.38770 -0.01870
H -4.35920 0.72040 0.09530
H -2.22210 1.50200 -0.86490
H -2.19610 1.48960 0.88960
H -0.93270 -0.64710 -0.91760
H -0.91660 -0.67830 0.86490
H -3.32490 -0.33790 2.16550
H -4.54040 -1.34020 1.36770
H -2.83510 -1.72750 1.17020
H -3.63160 -0.18810 -2.13800
H -2.95340 -1.61350 -1.32850
H -4.68760 -1.29490 -1.25020
H 1.14270 -2.07080 -0.03270
H 3.13500 1.78650 0.01920
H 3.89460 -2.23430 -0.02720
