38

N 	  0.412700	  1.987500	  0.006000
N 	 -2.174700	  0.392500	 -0.246300
N 	  1.999800	 -0.377800	  0.026000
N 	 -0.386100	 -1.924600	  0.032100
C 	 -0.580900	  2.923300	 -0.122600
C 	 -2.668300	  1.635000	  0.087700
C 	  1.670600	  2.534900	 -0.086400
C 	 -3.092700	 -0.591200	  0.050400
C 	 -1.918700	  2.827900	 -0.096200
C 	  0.125800	  4.192300	 -0.293800
C 	 -3.961800	  1.438800	  0.535000
C 	  1.451700	  3.962500	 -0.267300
C 	 -4.227100	  0.049200	  0.510400
C 	  2.874400	  1.948600	 -0.038500
C 	 -2.819800	 -1.966200	 -0.176100
C 	  2.976600	  0.478700	  0.082400
C 	 -1.603500	 -2.532500	 -0.175300
C 	  2.587600	 -1.610600	  0.156200
C 	  0.491200	 -2.884900	 -0.030300
C 	  1.960900	 -2.793100	  0.134900
C 	  4.308500	 -0.112900	  0.258500
C 	 -1.368300	 -3.944000	 -0.366800
C 	  4.009100	 -1.413200	  0.299900
C 	 -0.067100	 -4.220300	 -0.279800
H 	 -2.501400	  3.743900	 -0.181100
H 	  0.260300	  1.010000	  0.193100
H 	 -1.272200	  0.219600	 -0.665400
H 	 -0.347300	  5.153900	 -0.418100
H 	 -4.642400	  2.217500	  0.852400
H 	  2.227800	  4.704200	 -0.369800
H 	 -5.147800	 -0.435400	  0.806200
H 	  3.791400	  2.523100	 -0.116900
H 	 -3.688700	 -2.608600	 -0.309700
H 	  2.517100	 -3.721100	  0.226500
H 	  5.260300	  0.379000	  0.330900
H 	 -2.144300	 -4.672400	 -0.548000
H 	  4.725900	 -2.211200	  0.419500
H 	  0.445400	 -5.159900	 -0.368900
