21
generated via python
N 1.28420 0.00030 0.00010
C -1.31590 -0.00020 0.00000
C -0.76270 -1.40150 -0.29920
C -0.76320 0.95960 -1.06400
C -0.76330 0.44140 1.36310
C 0.77390 -1.35790 -0.28840
C 0.77350 0.92900 -1.03180
C 0.77360 0.42930 1.32030
H -2.41050 -0.00050 0.00000
H -1.12040 -1.74670 -1.27660
H -1.12190 -2.11620 0.45080
H -1.12110 1.97850 -0.87440
H -1.12240 0.66730 -2.05790
H -1.12090 -0.23240 2.15070
H -1.12260 1.44820 1.60700
H 1.16310 -2.06520 0.45470
H 1.16470 -1.70290 -1.25400
H 1.16260 0.63920 -2.01590
H 1.16390 1.93770 -0.84790
H 1.16240 1.42650 1.56150
H 1.16430 -0.23430 2.10190
