17
generated via python
N 1.18930 1.39140 0.00000
C 0.00560 -0.70770 0.00000
C 0.03230 0.70270 0.00000
C -1.22050 -1.39430 0.00000
C 1.22930 -1.39070 0.00000
C -1.18350 1.38070 0.00000
C -2.42160 -0.69080 0.00000
C -2.40270 0.69830 0.00000
C 2.42310 -0.68380 -0.00010
C 2.34860 0.69420 0.00010
H -1.24650 -2.48180 0.00000
H 1.25870 -2.47790 -0.00010
H -1.19590 2.46910 -0.00010
H -3.36700 -1.22470 0.00000
H -3.33510 1.25530 -0.00010
H 3.37820 -1.19580 -0.00010
H 3.24900 1.29970 0.00010
