43

N  	 -1.50335 	  0.50792 	  0.60993
N  	  1.10325 	 -0.69488 	  0.23053
C  	 -0.33885 	  0.20962 	 -1.60957
C  	  0.61005 	  1.76502 	  0.04783
C  	 -1.68505 	  0.19682 	 -0.82397
C  	  1.59015 	  0.66262 	  0.54693
C  	  0.30385 	  1.58892 	 -1.44147
C  	 -0.73175 	  1.74372 	  0.81893
C  	  0.69025 	 -0.85828 	 -1.16807
C  	 -2.42585 	 -1.14228 	 -0.99007
C  	  3.02565 	  0.90712 	  0.03393
C  	 -2.78605 	  0.57422 	  1.32283
C  	  2.02745 	 -1.73928 	  0.68123
C  	 -3.76495 	 -1.12548 	 -0.25897
C  	  3.98665 	 -0.16818 	  0.53243
C  	 -3.56315 	 -0.73618 	  1.19993
C  	  3.46265 	 -1.55678 	  0.18813
H  	 -0.55765 	  0.05372 	 -2.67387
H  	  1.07135 	  2.74862 	  0.20313
H  	 -2.31975 	  0.97852 	 -1.26877
H  	  1.62735 	  0.74582 	  1.64263
H  	 -0.37645 	  2.37592 	 -1.78997
H  	  1.21015 	  1.67272 	 -2.05037
H  	 -0.52065 	  1.86422 	  1.88883
H  	 -1.32595 	  2.61532 	  0.51183
H  	  0.25905 	 -1.85498 	 -1.31317
H  	  1.55695 	 -0.80418 	 -1.83897
H  	 -1.82685 	 -1.97048 	 -0.59357
H  	 -2.59565 	 -1.34788 	 -2.05337
H  	  3.37825 	  1.88792 	  0.37493
H  	  3.05765 	  0.92542 	 -1.06107
H  	 -3.39945 	  1.40122 	  0.94163
H  	 -2.60935 	  0.76562 	  2.38823
H  	  1.65745 	 -2.72948 	  0.38863
H  	  2.02945 	 -1.74298 	  1.77903
H  	 -4.23965 	 -2.11078 	 -0.32247
H  	 -4.44035 	 -0.40938 	 -0.74267
H  	  4.10435 	 -0.07888 	  1.61933
H  	  4.97745 	 -0.02058 	  0.08893
H  	 -4.53615 	 -0.63698 	  1.69413
H  	 -3.02015 	 -1.53538 	  1.72023
H  	  3.51235 	 -1.71208 	 -0.89617
H  	  4.10765 	 -2.31578 	  0.64543
