47
generated via python
O -2.59930 2.13410 0.45540
O 1.94120 3.39880 0.38000
N -1.42130 -2.61850 0.37460
N 1.12080 1.21750 0.38410
C 0.46930 -1.12740 0.34920
C -0.06180 0.34210 0.38670
C -0.35560 -2.09390 -0.52390
C -0.88850 0.82810 -0.81540
C -1.82390 -0.25720 -1.36860
C -0.92220 -1.43460 -1.78370
C 0.35390 -1.79570 1.72610
C 1.92220 -0.90520 0.01270
C -1.08880 -2.26350 1.76170
C -1.48250 2.20780 -0.44060
C -2.86630 -0.74240 -0.38000
C -2.78260 -2.20270 0.00140
C 2.26710 0.44890 0.12060
C -0.43560 3.10490 0.27900
C 1.00850 2.59710 0.35060
C -3.76390 0.08770 0.17340
C 2.88390 -1.85320 -0.30980
C -3.77440 1.55370 -0.09790
C 3.56780 0.87900 -0.09300
C 4.19630 -1.43040 -0.52660
C 4.53560 -0.07500 -0.41610
H -0.61150 0.53200 1.31820
H 0.25540 -2.95300 -0.82630
H -0.19100 1.04650 -1.64190
H -2.32770 0.11740 -2.26880
H -1.48960 -2.16360 -2.37710
H -0.10600 -1.09270 -2.43250
H 0.58960 -1.12350 2.55860
H 1.02240 -2.66360 1.80430
H -1.21320 -3.12570 2.42460
H -1.72060 -1.45450 2.14840
H -1.81170 2.72230 -1.35260
H -3.48380 -2.45300 0.80800
H -3.11140 -2.80680 -0.85420
H -0.74500 3.31550 1.31080
H -0.40780 4.07190 -0.23950
H -4.48390 -0.29230 0.89270
H 2.63470 -2.90660 -0.38100
H -3.89330 1.78840 -1.16190
H -4.62910 1.99800 0.42330
H 3.85530 1.92130 -0.02610
H 4.96330 -2.15800 -0.77780
H 5.56240 0.23650 -0.58850
