50

O  	  0.00140 	 -3.10296 	 -0.00109
C  	  0.72940 	  0.23384 	 -0.00399
C  	 -0.72900 	  0.23334 	  0.00331
C  	  1.20650 	 -1.02386 	 -0.01469
C  	 -1.20530 	 -1.02466 	  0.01441
C  	  0.00100 	 -1.88466 	 -0.00009
C  	  1.58260 	  1.43154 	  0.01501
C  	 -1.58320 	  1.43024 	 -0.01529
C  	  2.58240 	 -1.51656 	 -0.01839
C  	 -2.58080 	 -1.51836 	  0.01841
C  	  1.99320 	  1.97614 	  1.23191
C  	 -1.99540 	  1.97624 	 -1.23209
C  	  1.98120 	  2.02324 	 -1.18359
C  	 -1.98350 	  2.02264 	  1.18351
C  	  3.24820 	 -1.76586 	  1.18781
C  	 -3.24660 	 -1.76826 	 -1.18769
C  	  3.24950 	 -1.74476 	 -1.22809
C  	 -3.24750 	 -1.74666 	  1.22831
C  	  2.80210 	  3.11234 	  1.25011
C  	 -2.80550 	  3.11174 	 -1.24989
C  	  2.79030 	  3.15934 	 -1.16539
C  	 -2.79370 	  3.15804 	  1.16561
C  	  4.56150 	 -2.23586 	  1.18451
C  	 -4.55950 	 -2.23906 	 -1.18399
C  	  4.56270 	 -2.21496 	 -1.23139
C  	 -4.56050 	 -2.21766 	  1.23191
C  	  3.20080 	  3.70374 	  0.05151
C  	 -3.20460 	  3.70254 	 -0.05119
C  	  5.21870 	 -2.46046 	 -0.02499
C  	 -5.21640 	 -2.46386 	  0.02561
H  	  1.69030 	  1.52674 	  2.17461
H  	 -1.69230 	  1.52764 	 -2.17509
H  	  1.66910 	  1.61064 	 -2.13999
H  	 -1.67130 	  1.61034 	  2.14001
H  	  2.75030 	 -1.59596 	  2.13981
H  	 -2.74890 	 -1.59806 	 -2.13979
H  	  2.75270 	 -1.55826 	 -2.17739
H  	 -2.75060 	 -1.55966 	  2.17751
H  	  3.12160 	  3.53634 	  2.19751
H  	 -3.12530 	  3.53584 	 -2.19729
H  	  3.10060 	  3.62004 	 -2.09859
H  	 -3.10440 	  3.61824 	  2.09891
H  	  5.07230 	 -2.42686 	  2.12371
H  	 -5.07050 	 -2.43066 	 -2.12299
H  	  5.07470 	 -2.38976 	 -2.17309
H  	 -5.07210 	 -2.39266 	  2.17371
H  	  3.83070 	  4.58844 	  0.06561
H  	 -3.83530 	  4.58664 	 -0.06509
H  	  6.24130 	 -2.82636 	 -0.02759
H  	 -6.23870 	 -2.83046 	  0.02851
