30
generated via python
C 0.00000 -0.70460 -0.00010
C 0.00000 0.70450 -0.00020
C -2.45110 -0.70580 0.00020
C -2.45100 0.70580 0.00000
C 2.45110 -0.70580 -0.00010
C 2.45110 0.70570 0.00010
C 1.22540 -1.39240 -0.00030
C 1.22540 1.39230 -0.00010
C -1.22550 -1.39230 0.00020
C -1.22540 1.39230 -0.00020
C -3.67640 -1.39290 0.00020
C -3.67640 1.39280 -0.00010
C 3.67650 -1.39290 -0.00010
C 3.67640 1.39290 0.00030
C -4.88470 -0.69550 0.00010
C -4.88460 0.69570 -0.00010
C 4.88470 -0.69560 -0.00010
C 4.88460 0.69570 0.00040
H 1.22540 -2.48250 -0.00030
H 1.22530 2.48250 -0.00010
H -1.22550 -2.48240 0.00030
H -1.22540 2.48240 -0.00030
H -3.70010 -2.48080 0.00030
H -3.69990 2.48070 -0.00020
H 3.70010 -2.48070 -0.00030
H 3.69990 2.48070 0.00040
H -5.82490 -1.23920 0.00020
H -5.82480 1.23930 -0.00020
H 5.82490 -1.23920 -0.00020
H 5.82480 1.23940 0.00050
