56

O 	  2.591400	 -0.764500	  2.164800
O 	 -2.108600	 -2.704600	 -1.722400
O 	  0.163000	 -0.497000	  3.246800
O 	  1.450600	  1.906800	  1.829500
O 	 -1.858900	  1.331100	  2.159600
O 	  3.086000	  0.655700	 -2.479800
O 	 -3.650300	  2.629300	  0.748900
O 	  3.423900	  3.307400	 -1.054400
N 	  4.048300	 -1.348200	 -0.338400
N 	  1.140900	  3.453300	 -0.740800
C 	  1.576800	 -1.431800	  0.046300
C 	 -0.946900	 -1.773500	  0.195900
C 	  0.235500	 -1.488900	 -0.746600
C 	  1.555700	 -0.437700	  1.238300
C 	  2.729300	 -1.121400	 -0.923400
C 	 -2.326900	 -2.024200	 -0.481900
C 	 -0.983700	 -0.646300	  1.180700
C 	  0.236500	 -0.539400	  2.022400
C 	  1.773500	  1.007200	  0.825300
C 	 -3.138400	 -0.745000	 -0.683600
C 	  2.695700	  0.330300	 -1.357600
C 	 -1.915600	  0.316000	  1.225300
C 	  2.244600	  1.377800	 -0.383800
C 	 -2.959800	  0.362700	  0.177400
C 	 -3.167700	 -2.979500	  0.387500
C 	 -4.125300	 -0.688100	 -1.687300
C 	  4.153000	 -2.716200	  0.165900
C 	  5.094600	 -1.083400	 -1.324100
C 	 -3.748900	  1.508700	 -0.028400
C 	  2.347800	  2.799200	 -0.760200
C 	 -4.903800	  0.452700	 -1.864200
C 	 -4.712400	  1.551700	 -1.037900
H 	  1.686200	 -2.444500	  0.452600
H 	 -0.687800	 -2.696000	  0.736900
H 	  0.318700	 -2.286200	 -1.495000
H 	  0.063200	 -0.556000	 -1.298300
H 	  2.597600	 -1.739300	 -1.823500
H 	 -2.650100	 -3.934400	  0.537800
H 	 -4.118700	 -3.225700	 -0.100700
H 	 -3.393600	 -2.553300	  1.371100
H 	  2.627700	 -0.085000	  2.858600
H 	 -1.661400	 -3.546700	 -1.530400
H 	 -4.299400	 -1.540900	 -2.339000
H 	  3.574800	 -2.880600	  1.078800
H 	  3.862700	 -3.461200	 -0.584300
H 	  5.187200	 -2.935300	  0.459900
H 	  4.932700	 -1.617800	 -2.267500
H 	  5.215200	 -0.014600	 -1.525800
H 	  6.072000	 -1.396500	 -0.935800
H 	  1.337900	  1.434900	  2.670100
H 	 -1.145400	  1.158400	  2.794500
H 	 -5.658400	  0.481100	 -2.644400
H 	 -5.327500	  2.435200	 -1.188500
H 	  0.268800	  2.993000	 -0.498500
H 	  1.079900	  4.437500	 -0.979800
H 	 -4.283200	  3.301000	  0.442800
