21

O  	  1.03756 	  2.52956 	  0.00068
O  	 -3.20264 	  0.69416 	  0.00028
N  	  2.06916 	 -0.31944 	 -0.00022
N  	 -1.40564 	 -0.80354 	 -0.00012
N  	 -1.07344 	  1.57246 	 -0.00022
N  	  0.70196 	 -2.08314 	  0.00018
C  	  0.79996 	  0.18126 	 -0.00002
C  	 -0.01824 	 -0.91944 	  0.00028
C  	  0.32856 	  1.52796 	 -0.00052
C  	 -1.98594 	  0.48746 	 -0.00042
C  	  1.95846 	 -1.68674 	 -0.00002
C  	 -2.24674 	 -1.99204 	 -0.00002
C  	  3.30536 	  0.42486 	 -0.00012
H  	  2.82146 	 -2.33864 	  0.00008
H  	 -1.48934 	  2.49996 	  0.00008
H  	 -2.02784 	 -2.58234 	  0.89498
H  	 -2.02694 	 -2.58314 	 -0.89432
H  	 -3.30804 	 -1.73084 	 -0.00072
H  	  3.33596 	  1.04496 	 -0.89932
H  	  3.33606 	  1.04436 	  0.89948
H  	  4.14976 	 -0.26914 	 -0.00042
