9

S 	  1.464000	 -0.001100	  0.000000
C 	 -1.003700	  0.713200	  0.000000
C 	 -1.005000	 -0.711600	  0.000100
C 	  0.273300	  1.229500	  0.000000
C 	  0.271300	 -1.230000	 -0.000100
H 	 -1.894300	  1.328200	  0.000000
H 	 -1.896500	 -1.325200	  0.000100
H 	  0.564100	  2.270500	  0.000000
H 	  0.560500	 -2.271500	 -0.000200
