24
generated via python
N 0.73030 -2.03930 -0.14350
N -4.26840 1.00350 -0.28590
C -0.86910 -0.57560 0.33230
C 0.35620 0.13430 0.19180
C -2.19040 0.00380 0.64880
C 1.34350 -0.80730 -0.10660
C -0.60680 -1.90950 0.12040
C -2.97810 0.40590 -0.61280
C 0.72120 1.49170 0.29030
C 2.68290 -0.45790 -0.31220
C 2.05730 1.85590 0.08690
C 3.02130 0.89440 -0.20950
H -2.78010 -0.71930 1.22790
H -2.06550 0.87970 1.29830
H -1.24990 -2.77850 0.13290
H 1.20010 -2.91280 -0.33760
H -3.14570 -0.47480 -1.24350
H -2.39490 1.12000 -1.20620
H -0.01770 2.25430 0.51920
H 3.43420 -1.20570 -0.54310
H 2.34460 2.90140 0.16110
H 4.05330 1.19950 -0.36370
H -4.72640 1.30910 -1.14350
H -4.12420 1.84140 0.27610
