27
generated via python
O 1.47620 -0.81540 1.72820
O 2.55980 -1.94720 0.08790
N -1.64740 2.00440 0.54820
N 3.87590 0.36550 -0.58320
C 0.14750 1.13230 -0.42360
C 1.50650 0.98450 -0.98300
C -0.86670 0.13490 -0.38590
C 2.56010 0.48810 0.04020
C -1.98230 0.70780 0.22860
C -0.36250 2.27020 0.15790
C -0.94310 -1.20450 -0.81690
C -3.17510 0.00550 0.43460
C 2.20830 -0.88520 0.58600
C -2.12980 -1.91930 -0.61760
C -3.22740 -1.32160 -0.00120
H 1.47240 0.29410 -1.83700
H 1.83460 1.94970 -1.39270
H 2.63910 1.19020 0.87890
H 0.07230 3.24490 0.33040
H -2.26200 2.66390 1.00510
H -0.10010 -1.68640 -1.30350
H -4.03010 0.46990 0.91430
H -2.19480 -2.95220 -0.94900
H 4.57150 0.13480 0.12550
H 4.15490 1.26570 -0.97170
H -4.13930 -1.89530 0.14340
H 1.26170 -1.70570 2.07970
