86
generated via python
O -2.04460 0.88390 -1.36960
O -5.87130 3.48690 -0.14690
O -3.36150 3.33410 -1.26410
O 2.23830 -2.22250 -0.90330
O 2.94210 -3.92780 1.17840
O 4.65570 -2.47790 -2.09300
N -4.04920 -2.73910 -0.19600
N 4.88510 2.74540 1.69460
C -3.09230 -1.49670 -0.14650
C -5.15070 -2.60060 0.85780
C -3.85430 -0.17330 -0.20430
C -5.94800 -1.31230 0.69520
C -2.19980 -1.49020 1.13310
C -5.16460 -0.08830 0.29870
C -3.30180 -4.05290 0.04930
C -4.66130 -2.85770 -1.60480
C -3.24970 0.99430 -0.71640
C -0.86220 -2.19830 1.06960
C -5.82030 1.15480 0.32080
C -3.92090 2.22120 -0.70890
C -5.19850 2.30250 -0.16780
C 0.05560 -1.95050 0.04140
C -0.47230 -3.03620 2.12820
C 3.66670 2.09790 1.14840
C 3.96560 0.83950 0.33990
C 2.86820 3.15840 0.32710
C 5.92160 2.91450 0.66720
C 1.34000 -2.50170 0.09980
C 5.21150 0.66240 -0.28270
C 6.34920 1.61300 -0.01710
C -0.95380 1.58580 -0.90690
C 0.79560 -3.62270 2.15380
C 1.49920 2.69920 -0.12060
C 1.70790 -3.35590 1.13810
C 2.97630 -0.14800 0.18490
C 3.19420 -1.26280 -0.63140
C 5.42760 -0.46360 -1.09080
C 5.39430 2.05590 2.88060
C 0.07900 1.74050 -1.83540
C -0.77830 2.03000 0.40530
C 4.41800 -1.40830 -1.28250
C 1.29400 2.30180 -1.44810
C 0.44410 2.58550 0.79440
C -5.69240 4.31370 1.00140
C 4.31790 -2.33410 -3.47080
H -2.48080 -1.59300 -1.05060
H -4.67720 -2.63640 1.84360
H -5.80660 -3.47570 0.77600
H -6.47680 -1.11630 1.63650
H -6.72010 -1.47260 -0.06870
H -2.76330 -1.85210 1.99920
H -1.94700 -0.45750 1.40490
H -2.44490 -4.09590 -0.62840
H -2.98970 -4.09770 1.09430
H -3.98730 -4.88220 -0.15300
H -5.17110 -1.92840 -1.86640
H -3.84980 -3.05010 -2.31320
H -5.37200 -3.68960 -1.60220
H -6.83850 1.21990 0.69960
H -0.20180 -1.29410 -0.78360
H -1.15570 -3.23430 2.95070
H 3.03570 1.80700 2.00040
H 3.43340 3.47220 -0.55950
H 2.73360 4.06600 0.93170
H 6.80290 3.40950 1.09500
H 5.55970 3.61450 -0.09540
H 7.07760 1.09460 0.61950
H 6.85230 1.85870 -0.96010
H 1.06720 -4.27520 2.97920
H -2.63960 3.06560 -1.85540
H 2.02410 -0.01380 0.68910
H 6.39350 -0.60580 -1.57100
H 6.26350 2.58480 3.28730
H 5.68560 1.01860 2.68580
H 4.63730 2.05270 3.67280
H -0.04360 1.39050 -2.85730
H -1.55390 1.91380 1.15600
H 2.09670 2.37790 -2.17730
H 0.58280 2.88800 1.82950
H -4.64120 4.59810 1.11150
H -6.03840 3.79730 1.90250
H -6.28810 5.22060 0.86700
H 3.41290 -3.71350 0.35540
H 4.90490 -1.53050 -3.92680
H 3.24880 -2.13090 -3.58830
H 4.55340 -3.27200 -3.98110
