24

O  	 -1.70431 	 -1.59469 	 -0.97687
O  	  4.28669 	 -0.59849 	 -0.37847
O  	 -3.41171 	 -1.12179 	  0.43963
N  	 -3.17031 	  1.53131 	 -0.21887
C  	 -0.98091 	  1.05761 	  0.77953
C  	 -1.97951 	  0.69191 	 -0.32957
C  	  0.43019 	  0.61401 	  0.46913
C  	  0.84869 	 -0.64319 	  0.87153
C  	  1.27609 	  1.47391 	 -0.21137
C  	 -2.45131 	 -0.74799 	 -0.22157
C  	  2.15109 	 -1.05249 	  0.58523
C  	  2.57849 	  1.06461 	 -0.49787
C  	  3.01599 	 -0.19869 	 -0.09957
H  	 -1.29471 	  0.63111 	  1.74233
H  	 -0.96381 	  2.14551 	  0.93523
H  	 -1.55621 	  0.85011 	 -1.32827
H  	  0.18419 	 -1.31459 	  1.40763
H  	  0.94359 	  2.45831 	 -0.52777
H  	 -2.90931 	  2.51031 	 -0.33237
H  	 -3.56131 	  1.45561 	  0.72003
H  	  2.47979 	 -2.03879 	  0.90153
H  	  3.24739 	  1.73391 	 -1.03197
H  	 -2.02281 	 -2.52019 	 -0.91197
H  	  4.41779 	 -1.49729 	 -0.03047
