12
generated via python
O 2.32640 0.96510 0.00010
O -2.29720 1.02320 0.00050
N 0.01800 1.01990 -0.00020
N 1.16370 -1.02210 0.00010
C 1.25240 0.36290 0.00000
C -1.23150 0.41410 -0.00040
C -0.02680 -1.69550 0.00020
C -1.20490 -1.06760 -0.00020
H 0.03820 2.03570 -0.00010
H 2.01870 -1.57020 0.00040
H -2.14430 -1.60630 -0.00020
H 0.04690 -2.77610 0.00040
